                                  MODFLOW-2005     
      U.S. GEOLOGICAL SURVEY MODULAR FINITE-DIFFERENCE GROUND-WATER FLOW MODEL
                            VERSION 1.12.00 2/3/2017

 LIST FILE: my_model.list
                         UNIT    2

 OPENING my_model.dis
 FILE TYPE:DIS   UNIT   11   STATUS:OLD    
 FORMAT:FORMATTED              ACCESS:SEQUENTIAL          

 OPENING my_model.bas
 FILE TYPE:BAS6   UNIT   13   STATUS:OLD    
 FORMAT:FORMATTED              ACCESS:SEQUENTIAL          

 OPENING my_model.lpf
 FILE TYPE:LPF   UNIT   15   STATUS:OLD    
 FORMAT:FORMATTED              ACCESS:SEQUENTIAL          

 OPENING my_model.rch
 FILE TYPE:RCH   UNIT   19   STATUS:OLD    
 FORMAT:FORMATTED              ACCESS:SEQUENTIAL          

 OPENING my_model.riv
 FILE TYPE:RIV   UNIT   18   STATUS:OLD    
 FORMAT:FORMATTED              ACCESS:SEQUENTIAL          

 OPENING my_model.wel
 FILE TYPE:WEL   UNIT   20   STATUS:OLD    
 FORMAT:FORMATTED              ACCESS:SEQUENTIAL          

 OPENING my_model.oc
 FILE TYPE:OC   UNIT   14   STATUS:OLD    
 FORMAT:FORMATTED              ACCESS:SEQUENTIAL          

 OPENING my_model.pcg
 FILE TYPE:PCG   UNIT   27   STATUS:OLD    
 FORMAT:FORMATTED              ACCESS:SEQUENTIAL          

 OPENING my_model.cbc
 FILE TYPE:DATA(BINARY)   UNIT    1   STATUS:REPLACE
 FORMAT:BINARY                 ACCESS:SEQUENTIAL          

 OPENING my_model.hds
 FILE TYPE:DATA(BINARY)   UNIT   51   STATUS:REPLACE
 FORMAT:BINARY                 ACCESS:SEQUENTIAL          

 BAS -- BASIC PACKAGE, VERSION 7, 5/2/2005 INPUT READ FROM UNIT   13
 
 MODFLOW was compiled using mixed precision
 Precision of REAL variables:           6
 Precision of DOUBLE PRECISION variables:          15

 DISCRETIZATION INPUT DATA READ FROM UNIT   11
 # DIS package for  MODFLOW-2005, generated by Flopy.
    1 LAYERS        48 ROWS        24 COLUMNS
    1 STRESS PERIOD(S) IN SIMULATION
 MODEL TIME UNIT IS DAYS
 MODEL LENGTH UNIT IS FEET
  Confining bed flag for each layer:
   0

                     DELR =   2500.00    

                     DELC =   2500.00    

 TOP ELEVATION OF LAYER 1 =   0.00000    

   MODEL LAYER BOTTOM EL. =  -50.0000     FOR LAYER   1


 STRESS PERIOD     LENGTH       TIME STEPS     MULTIPLIER FOR DELT    SS FLAG
 ----------------------------------------------------------------------------
        1         1.000000          1                    1.000         SS

 STEADY-STATE SIMULATION



 
 # BAS6 package for  MODFLOW-2005, generated by Flopy.                           
 THE FREE FORMAT OPTION HAS BEEN SELECTED



                     BOUNDARY ARRAY FOR LAYER   1
 READING ON UNIT   13 WITH FORMAT: (24I10)             

 AQUIFER HEAD WILL BE SET TO  -999.99     AT ALL NO-FLOW NODES (IBOUND=0).



                       INITIAL HEAD FOR LAYER   1
 READING ON UNIT   13 WITH FORMAT: (24E15.6)           
 # OC package for  MODFLOW-2005, generated by Flopy.

 OUTPUT CONTROL IS SPECIFIED ONLY AT TIME STEPS FOR WHICH OUTPUT IS DESIRED
 COMPACT CELL-BY-CELL BUDGET FILES WILL BE WRITTEN
 AUXILIARY DATA WILL BE SAVED IN CELL-BY-CELL BUDGET FILES
 HEAD PRINT FORMAT CODE IS   0    DRAWDOWN PRINT FORMAT CODE IS   0
 HEADS WILL BE SAVED ON UNIT   51    DRAWDOWNS WILL BE SAVED ON UNIT    0

 LPF -- LAYER-PROPERTY FLOW PACKAGE, VERSION 7, 5/2/2005
         INPUT READ FROM UNIT   15
 # LPF package for  MODFLOW-2005, generated by Flopy.
 CELL-BY-CELL FLOWS WILL BE SAVED ON UNIT    1
 HEAD AT CELLS THAT CONVERT TO DRY= -1.00000E+30
 No named parameters

   LAYER FLAGS:
 LAYER       LAYTYP        LAYAVG         CHANI        LAYVKA        LAYWET
 ---------------------------------------------------------------------------
    1             1             0     1.000E+00             0             0

   INTERPRETATION OF LAYER FLAGS:
                        INTERBLOCK     HORIZONTAL    DATA IN
         LAYER TYPE   TRANSMISSIVITY   ANISOTROPY   ARRAY VKA   WETTABILITY
 LAYER      (LAYTYP)      (LAYAVG)       (CHANI)      (LAYVKA)      (LAYWET)
 ---------------------------------------------------------------------------
    1   CONVERTIBLE      HARMONIC     1.000E+00    VERTICAL K  NON-WETTABLE

 WETTING CAPABILITY IS NOT ACTIVE IN ANY LAYER



              HYD. COND. ALONG ROWS FOR LAYER   1
 READING ON UNIT   15 WITH FORMAT: (24E15.6)           



                VERTICAL HYD. COND. FOR LAYER   1
 READING ON UNIT   15 WITH FORMAT: (24E15.6)           

 WEL -- WELL PACKAGE, VERSION 7, 5/2/2005 INPUT READ FROM UNIT   20
 # WEL package for  MODFLOW-2005, generated by Flopy.
 No named parameters
 MAXIMUM OF      1 ACTIVE WELLS AT ONE TIME


     0 Well parameters

 RIV -- RIVER PACKAGE, VERSION 7, 5/2/2005 INPUT READ FROM UNIT   18
 # RIV package for  MODFLOW-2005, generated by Flopy.
 No named parameters
 MAXIMUM OF    205 ACTIVE RIVER REACHES AT ONE TIME


     0 River parameters

 RCH -- RECHARGE PACKAGE, VERSION 7, 5/2/2005 INPUT READ FROM UNIT   19
 # RCH package for  MODFLOW-2005, generated by Flopy.
 No named parameters
 OPTION 3 -- RECHARGE TO HIGHEST ACTIVE NODE IN EACH VERTICAL COLUMN


     0 Recharge parameters

 PCG -- CONJUGATE-GRADIENT SOLUTION PACKAGE, VERSION 7, 5/2/2005
 # PCG package for  MODFLOW-2005, generated by Flopy.
 MAXIMUM OF     50 CALLS OF SOLUTION ROUTINE
 MAXIMUM OF     30 INTERNAL ITERATIONS PER CALL TO SOLUTION ROUTINE
 MATRIX PRECONDITIONING TYPE :    1



                                    SOLUTION BY THE CONJUGATE-GRADIENT METHOD
                                   -------------------------------------------
                    MAXIMUM NUMBER OF CALLS TO PCG ROUTINE =       50
                        MAXIMUM ITERATIONS PER CALL TO PCG =       30
                               MATRIX PRECONDITIONING TYPE =        1
        RELAXATION FACTOR (ONLY USED WITH PRECOND. TYPE 1) =    0.10000E+01
 PARAMETER OF POLYNOMIAL PRECOND. = 2 (2) OR IS CALCULATED :        0
                         HEAD CHANGE CRITERION FOR CLOSURE =    0.10000E-04
                     RESIDUAL CHANGE CRITERION FOR CLOSURE =    0.10000E-04
            PCG HEAD AND RESIDUAL CHANGE PRINTOUT INTERVAL =      999
     PRINTING FROM SOLVER IS LIMITED(1) OR SUPPRESSED (>1) =        3
                            STEADY-STATE DAMPING PARAMETER =    0.10000E+01
                               TRANSIENT DAMPING PARAMETER =    0.10000E+01
1
                            STRESS PERIOD NO.    1, LENGTH =   1.000000    
                            -----------------------------------------------

                              NUMBER OF TIME STEPS =     1

                               MULTIPLIER FOR DELT =     1.000

                            INITIAL TIME STEP SIZE =   1.000000    

 WELL NO.  LAYER   ROW   COL   STRESS RATE         
 --------------------------------------------------
      1      1     11     21     -0.1330E+06

      1 WELL 

 REACH NO.  LAYER   ROW   COL     STAGE      CONDUCTANCE     BOTTOM EL.         
 -------------------------------------------------------------------------------
      1      1      1     13       638.5           5000.           635.5    
      2      1      1     14       639.5           5000.           636.5    
      3      1      1     20       645.1           5000.           642.1    
      4      1      2     13       634.7           5000.           631.7    
      5      1      2     20       638.2           5000.           635.2    
      6      1      3     12       628.5           5000.           625.5    
      7      1      3     13       630.1           5000.           627.1    
      8      1      3     15       631.7           5000.           628.7    
      9      1      3     16       631.7           5000.           628.7    
     10      1      3     17       631.7           5000.           628.7    
     11      1      3     18       631.7           5000.           628.7    
     12      1      3     19       638.2           5000.           635.2    
     13      1      3     20       638.2           5000.           635.2    
     14      1      4     11       622.3           5000.           619.3    
     15      1      4     12       623.4           5000.           620.4    
     16      1      4     13       626.1           5000.           623.1    
     17      1      4     14       630.6           5000.           627.6    
     18      1      4     15       631.7           5000.           628.7    
     19      1      4     16       631.7           5000.           628.7    
     20      1      4     18       634.8           5000.           631.8    
     21      1      4     19       638.2           5000.           635.2    
     22      1      5     10       618.2           5000.           615.2    
     23      1      5     11       619.0           5000.           616.0    
     24      1      5     12       621.8           5000.           618.8    
     25      1      6     10       616.0           5000.           613.0    
     26      1      7      8       612.8           5000.           609.8    
     27      1      7      9       613.1           5000.           610.1    
     28      1      7     10       615.2           5000.           612.2    
     29      1      8      8       610.4           5000.           607.4    
     30      1      9      8       608.7           5000.           605.7    
     31      1      9     24       588.7           5000.           585.7    
     32      1     10      7       608.3           5000.           605.3    
     33      1     10      8       607.0           5000.           604.0    
     34      1     10     22       588.7           5000.           585.7    
     35      1     10     23       576.2           5000.           573.2    
     36      1     10     24       576.2           5000.           573.2    
     37      1     11      8       606.3           5000.           603.3    
     38      1     11     21       585.0           5000.           582.0    
     39      1     11     22       576.2           5000.           573.2    
     40      1     11     23       576.2           5000.           573.2    
     41      1     12      8       603.8           5000.           600.8    
     42      1     12     21       576.2           5000.           573.2    
     43      1     12     22       576.2           5000.           573.2    
     44      1     13      8       602.5           5000.           599.5    
     45      1     13     20       584.7           5000.           581.7    
     46      1     13     21       576.2           5000.           573.2    
     47      1     14      7       601.4           5000.           598.4    
     48      1     14      8       602.0           5000.           599.0    
     49      1     14     20       578.8           5000.           575.8    
     50      1     14     21       576.2           5000.           573.2    
     51      1     15      6       601.0           5000.           598.0    
     52      1     15      7       599.8           5000.           596.8    
     53      1     15     20       578.5           5000.           575.5    
     54      1     15     21       576.2           5000.           573.2    
     55      1     16      6       596.8           5000.           593.8    
     56      1     16      7       598.4           5000.           595.4    
     57      1     16     20       568.6           5000.           565.6    
     58      1     16     21       573.9           5000.           570.9    
     59      1     17      6       593.2           5000.           590.2    
     60      1     17     20       559.6           5000.           556.6    
     61      1     17     21       573.9           5000.           570.9    
     62      1     18      5       592.8           5000.           589.8    
     63      1     18      6       592.9           5000.           589.9    
     64      1     18     20       559.6           5000.           556.6    
     65      1     18     21       573.9           5000.           570.9    
     66      1     19      5       588.6           5000.           585.6    
     67      1     19     20       559.6           5000.           556.6    
     68      1     19     21       568.7           5000.           565.7    
     69      1     20      4       587.5           5000.           584.5    
     70      1     20      5       588.0           5000.           585.0    
     71      1     20     20       558.8           5000.           555.8    
     72      1     20     21       562.8           5000.           559.8    
     73      1     20     22       574.9           5000.           571.9    
     74      1     21      3       585.8           5000.           582.8    
     75      1     21      4       586.6           5000.           583.6    
     76      1     21     20       548.6           5000.           545.6    
     77      1     21     21       557.2           5000.           554.2    
     78      1     21     22       574.9           5000.           571.9    
     79      1     22      3       584.5           5000.           581.5    
     80      1     22      8       584.8           5000.           581.8    
     81      1     22     20       544.9           5000.           541.9    
     82      1     22     21       554.9           5000.           551.9    
     83      1     23      3       582.4           5000.           579.4    
     84      1     23      4       582.4           5000.           579.4    
     85      1     23      8       582.7           5000.           579.7    
     86      1     23     19       544.9           5000.           541.9    
     87      1     23     20       545.5           5000.           542.5    
     88      1     23     21       560.6           5000.           557.6    
     89      1     24      4       582.0           5000.           579.0    
     90      1     24      5       581.8           5000.           578.8    
     91      1     24      6       581.2           5000.           578.2    
     92      1     24      7       580.5           5000.           577.5    
     93      1     24      8       582.7           5000.           579.7    
     94      1     24     19       541.0           5000.           538.0    
     95      1     24     20       541.0           5000.           538.0    
     96      1     24     21       563.5           5000.           560.5    
     97      1     25      7       579.7           5000.           576.7    
     98      1     25     19       538.5           5000.           535.5    
     99      1     25     20       553.4           5000.           550.4    
    100      1     26      7       580.3           5000.           577.3    
    101      1     26      8       577.5           5000.           574.5    
    102      1     26     19       538.0           5000.           535.0    
    103      1     26     20       542.4           5000.           539.4    
    104      1     27      8       575.8           5000.           572.8    
    105      1     27     19       537.8           5000.           534.8    
    106      1     27     20       538.1           5000.           535.1    
    107      1     28      8       574.8           5000.           571.8    
    108      1     28     19       537.5           5000.           534.5    
    109      1     29      8       572.9           5000.           569.9    
    110      1     29     19       537.2           5000.           534.2    
    111      1     30      7       567.5           5000.           564.5    
    112      1     30      8       571.9           5000.           568.9    
    113      1     30     19       537.1           5000.           534.1    
    114      1     30     23       560.9           5000.           557.9    
    115      1     30     24       560.2           5000.           557.2    
    116      1     31      6       561.2           5000.           558.2    
    117      1     31      7       561.8           5000.           558.8    
    118      1     31     18       536.7           5000.           533.7    
    119      1     31     19       537.0           5000.           534.0    
    120      1     31     20       526.8           5000.           523.8    
    121      1     31     21       528.6           5000.           525.6    
    122      1     31     22       543.8           5000.           540.8    
    123      1     31     23       556.5           5000.           553.5    
    124      1     31     24       560.2           5000.           557.2    
    125      1     32      6       560.2           5000.           557.2    
    126      1     32     18       536.7           5000.           533.7    
    127      1     32     20       519.5           5000.           516.5    
    128      1     33      5       556.7           5000.           553.7    
    129      1     33      6       557.6           5000.           554.6    
    130      1     33     17       536.6           5000.           533.6    
    131      1     33     18       513.1           5000.           510.1    
    132      1     33     19       514.0           5000.           511.0    
    133      1     33     20       518.6           5000.           515.6    
    134      1     34      4       556.2           5000.           553.2    
    135      1     34      5       556.7           5000.           553.7    
    136      1     34     16       503.7           5000.           500.7    
    137      1     34     17       503.7           5000.           500.7    
    138      1     34     18       509.4           5000.           506.4    
    139      1     35      4       547.8           5000.           544.8    
    140      1     35      5       547.7           5000.           544.7    
    141      1     35     15       503.5           5000.           500.5    
    142      1     35     16       503.5           5000.           500.5    
    143      1     36      5       544.4           5000.           541.4    
    144      1     36     14       503.5           5000.           500.5    
    145      1     36     15       503.5           5000.           500.5    
    146      1     37      5       540.5           5000.           537.5    
    147      1     37     13       503.4           5000.           500.4    
    148      1     37     14       503.4           5000.           500.4    
    149      1     38      5       530.3           5000.           527.3    
    150      1     38     11       503.4           5000.           500.4    
    151      1     38     12       503.4           5000.           500.4    
    152      1     38     13       503.4           5000.           500.4    
    153      1     39      5       523.6           5000.           520.6    
    154      1     39     10       503.4           5000.           500.4    
    155      1     39     11       503.4           5000.           500.4    
    156      1     40      4       517.9           5000.           514.9    
    157      1     40      5       520.4           5000.           517.4    
    158      1     40     10       503.4           5000.           500.4    
    159      1     41      2       516.2           5000.           513.2    
    160      1     41      3       517.5           5000.           514.5    
    161      1     41      4       517.5           5000.           514.5    
    162      1     41     10       503.4           5000.           500.4    
    163      1     42      2       513.7           5000.           510.7    
    164      1     42     10       503.4           5000.           500.4    
    165      1     43      2       513.4           5000.           510.4    
    166      1     43      9       503.4           5000.           500.4    
    167      1     43     10       503.4           5000.           500.4    
    168      1     44      2       513.4           5000.           510.4    
    169      1     44      9       503.4           5000.           500.4    
    170      1     44     18       592.2           5000.           589.2    
    171      1     44     19       596.3           5000.           593.3    
    172      1     44     20       602.1           5000.           599.1    
    173      1     45      2       515.9           5000.           512.9    
    174      1     45      3       513.4           5000.           510.4    
    175      1     45      7       503.4           5000.           500.4    
    176      1     45      8       503.4           5000.           500.4    
    177      1     45      9       503.4           5000.           500.4    
    178      1     45     10       503.4           5000.           500.4    
    179      1     45     15       578.5           5000.           575.5    
    180      1     45     16       582.0           5000.           579.0    
    181      1     45     17       582.4           5000.           579.4    
    182      1     45     18       589.3           5000.           586.3    
    183      1     46      3       503.4           5000.           500.4    
    184      1     46      4       503.4           5000.           500.4    
    185      1     46      5       503.4           5000.           500.4    
    186      1     46      6       503.4           5000.           500.4    
    187      1     46      7       503.4           5000.           500.4    
    188      1     46     10       520.5           5000.           517.5    
    189      1     46     13       574.6           5000.           571.6    
    190      1     46     14       573.6           5000.           570.6    
    191      1     46     15       578.4           5000.           575.4    
    192      1     46     16       579.7           5000.           576.7    
    193      1     46     17       582.7           5000.           579.7    
    194      1     46     18       585.7           5000.           582.7    
    195      1     47      4       503.4           5000.           500.4    
    196      1     47      5       503.4           5000.           500.4    
    197      1     47     10       526.2           5000.           523.2    
    198      1     47     11       542.4           5000.           539.4    
    199      1     47     12       549.5           5000.           546.5    
    200      1     47     13       559.7           5000.           556.7    
    201      1     47     14       573.4           5000.           570.4    
    202      1     48      4       503.4           5000.           500.4    
    203      1     48      5       503.4           5000.           500.4    
    204      1     48     10       532.5           5000.           529.5    
    205      1     48     11       535.7           5000.           532.7    

    205 RIVER REACHES

                 RECHARGE =  1.000000E-03
 
 SOLVING FOR HEAD 

 OUTPUT CONTROL FOR STRESS PERIOD    1   TIME STEP    1
    PRINT HEAD FOR ALL LAYERS
    PRINT BUDGET
    SAVE HEAD FOR ALL LAYERS
    SAVE BUDGET
 UBDSV2 SAVING "   CONSTANT HEAD" ON UNIT   1 AT TIME STEP  1, STRESS PERIOD   1
 UBDSV1 SAVING "FLOW RIGHT FACE " ON UNIT   1 AT TIME STEP  1, STRESS PERIOD   1
 UBDSV1 SAVING "FLOW FRONT FACE " ON UNIT   1 AT TIME STEP  1, STRESS PERIOD   1
1
              HEAD IN LAYER   1 AT END OF TIME STEP   1 IN STRESS PERIOD    1
  ---------------------------------------------------------------------------

            1           2           3           4           5           6           7           8           9          10
           11          12          13          14          15          16          17          18          19          20
           21          22          23          24
 ........................................................................................................................
   1    623.9       623.8       623.8       623.7       623.5       623.4       623.2       623.1       623.0       622.9    
        622.9       623.0       623.0       622.6       621.8       621.0       620.3       619.6       618.9       618.3    
        617.3       616.6       616.1       615.8    
   2    623.7       623.6       623.5       623.4       623.3       623.1       623.0       622.8       622.7       622.6    
        622.6       622.7       622.7       622.1       621.5       620.8       620.0       619.3       618.6       617.9    
        616.9       616.1       615.6       615.3    
   3    623.3       623.2       623.1       623.0       622.8       622.6       622.4       622.2       622.1       622.0    
        622.1       622.2       622.0       621.5       621.0       620.3       619.5       618.7       617.9       617.0    
        615.9       615.1       614.6       614.3    
   4    622.6       622.6       622.5       622.3       622.1       621.9       621.6       621.4       621.2       621.1    
        621.1       621.2       620.9       620.5       619.9       619.1       618.1       617.4       616.5       615.3    
        614.3       613.6       613.0       612.8    
   5    621.8       621.8       621.6       621.4       621.2       620.9       620.6       620.2       620.0       619.7    
        619.7       619.7       619.3       618.7       618.1       617.2       616.3       615.4       614.4       613.3    
        612.4       611.6       611.0       610.7    
   6    620.8       620.8       620.6       620.4       620.1       619.7       619.2       618.8       618.4       618.2    
        618.1       617.9       617.5       616.9       616.1       615.2       614.3       613.2       612.1       611.0    
        609.9       609.1       608.4       608.1    
   7    619.7       619.6       619.4       619.1       618.8       618.3       617.7       616.9       616.6       616.5    
        616.4       616.1       615.6       614.9       614.1       613.1       612.0       610.8       609.5       608.3    
        607.1       606.1       605.3       604.9    
   8    618.4       618.3       618.1       617.7       617.3       616.7       616.1       615.2       615.1       615.0    
        614.7       614.3       613.7       612.9       611.9       610.8       609.6       608.2       606.8       605.3    
        603.8       602.6       601.7       601.1    
   9    616.9       616.8       616.6       616.2       615.7       615.1       614.3       613.5       613.4       613.2    
        612.9       612.3       611.6       610.7       609.7       608.5       607.1       605.5       603.8       601.9    
        600.1       598.6       597.4       596.4    
  10    615.3       615.2       614.9       614.6       614.0       613.3       612.4       611.7       611.6       611.4    
        610.9       610.3       609.5       608.5       607.4       606.0       604.5       602.7       600.6       598.4    
        595.9       594.0       592.5       592.0    
  11    613.6       613.5       613.2       612.8       612.3       611.6       610.8       610.0       609.8       609.5    
        608.9       608.2       607.4       606.3       605.0       603.5       601.8       599.8       597.5       594.7    
        590.8       590.0       589.6       590.1    
  12    611.7       611.6       611.3       610.9       610.4       609.7       608.9       608.1       607.9       607.5    
        606.9       606.1       605.1       604.0       602.6       601.0       599.2       597.1       594.7       591.9    
        588.8       587.9       588.3       588.5    
  13    609.8       609.6       609.4       608.9       608.4       607.7       606.9       606.1       605.9       605.4    
        604.8       603.9       602.9       601.6       600.2       598.5       596.5       594.4       591.9       589.2    
        586.9       586.7       586.8       586.9    
  14    607.7       607.6       607.3       606.8       606.2       605.5       604.7       604.2       603.9       603.3    
        602.6       601.7       600.6       599.2       597.7       595.9       593.9       591.7       589.2       586.5    
        584.9       585.0       585.1       585.1    
  15    605.6       605.4       605.1       604.6       604.0       603.1       602.5       602.2       601.8       601.2    
        600.4       599.4       598.2       596.8       595.2       593.3       591.3       589.0       586.6       584.0    
        582.8       583.0       583.1       583.2    
  16    603.3       603.2       602.8       602.3       601.6       600.7       600.4       600.1       599.6       599.0    
        598.1       597.0       595.8       594.3       592.6       590.7       588.6       586.3       583.7       580.9    
        580.3       580.7       580.9       581.1    
  17    601.0       600.8       600.5       599.9       599.2       598.4       598.3       597.9       597.4       596.7    
        595.8       594.7       593.3       591.8       590.1       588.1       586.0       583.6       580.9       577.9    
        577.9       578.4       578.7       578.8    
  18    598.7       598.4       598.0       597.4       596.6       596.2       596.1       595.7       595.1       594.4    
        593.4       592.2       590.8       589.2       587.5       585.4       583.2       580.8       578.2       575.4    
        575.5       575.9       576.3       576.5    
  19    596.2       596.0       595.6       594.9       594.2       594.1       593.9       593.5       592.8       592.0    
        591.0       589.7       588.3       586.7       584.8       582.7       580.5       578.0       575.4       572.8    
        572.7       573.4       573.8       574.0    
  20    593.8       593.5       593.0       592.3       591.9       591.9       591.6       591.1       590.5       589.6    
        588.5       587.2       585.7       584.0       582.1       580.0       577.7       575.2       572.5       569.9    
        569.8       570.9       571.3       571.6    
  21    591.4       591.1       590.4       590.0       589.9       589.7       589.3       588.8       588.0       587.1    
        586.0       584.7       583.1       581.3       579.4       577.2       574.7       572.1       569.4       566.6    
        566.7       568.2       568.8       569.1    
  22    589.0       588.7       588.1       587.9       587.7       587.4       587.0       586.3       585.6       584.6    
        583.4       582.1       580.5       578.6       576.6       574.3       571.8       569.0       566.1       563.5    
        564.1       565.5       566.3       566.6    
  23    586.7       586.4       585.9       585.6       585.4       585.1       584.6       583.9       583.1       582.1    
        580.9       579.4       577.8       575.9       573.8       571.5       568.8       565.8       562.2       560.9    
        562.1       563.2       564.0       564.3    
  24    584.3       584.2       583.8       583.4       583.1       582.7       582.1       581.6       580.6       579.5    
        578.2       576.7       575.0       573.1       571.0       568.6       566.0       562.9       559.3       558.5    
        560.1       561.1       561.8       562.1    
  25    582.0       581.8       581.5       581.2       580.8       580.4       579.8       579.1       578.1       576.9    
        575.5       574.0       572.3       570.4       568.2       565.9       563.3       560.3       556.9       556.9    
        558.0       559.0       559.7       560.0    
  26    579.5       579.3       579.1       578.8       578.4       578.0       577.5       576.6       575.5       574.2    
        572.8       571.2       569.5       567.5       565.5       563.2       560.7       557.9       554.7       554.4    
        555.9       557.0       557.7       558.0    
  27    576.9       576.7       576.5       576.2       575.8       575.3       574.7       574.0       572.7       571.4    
        569.9       568.3       566.5       564.7       562.6       560.4       558.1       555.5       552.7       552.4    
        553.9       555.0       555.7       556.1    
  28    574.1       574.0       573.8       573.4       573.0       572.5       571.9       571.2       569.8       568.4    
        566.9       565.3       563.5       561.7       559.7       557.6       555.4       553.2       550.9       551.2    
        552.2       553.2       553.9       554.3    
  29    571.2       571.1       570.9       570.5       570.1       569.5       568.9       568.2       566.8       565.3    
        563.8       562.1       560.4       558.6       556.6       554.6       552.6       550.6       548.7       549.3    
        550.2       551.3       552.2       552.7    
  30    568.2       568.1       567.8       567.5       567.0       566.4       565.8       564.9       563.5       562.1    
        560.5       558.9       557.1       555.3       553.4       551.4       549.5       547.7       546.2       546.7    
        547.8       549.3       550.7       551.3    
  31    565.1       564.9       564.7       564.3       563.8       563.0       562.3       561.4       560.1       558.7    
        557.1       555.4       553.6       551.8       549.9       548.0       546.2       544.3       543.4       543.1    
        544.7       547.1       549.0       549.8    
  32    561.8       561.7       561.4       561.0       560.5       559.8       558.9       557.9       556.6       555.2    
        553.6       551.9       550.0       548.1       546.1       544.2       542.6       541.1       540.9       540.8    
        543.7       545.9       547.5       548.3    
  33    558.4       558.3       558.0       557.6       557.1       556.4       555.4       554.3       553.0       551.6    
        549.9       548.2       546.2       544.2       542.0       540.0       538.6       537.2       537.9       539.7    
        543.0       545.2       546.6       547.3    
  34    554.9       554.8       554.5       554.1       553.6       552.8       551.8       550.7       549.4       547.9    
        546.2       544.4       542.3       540.1       537.6       534.8       534.7       535.7       538.6       540.8    
        543.1       544.9       546.1       546.7    
  35    551.3       551.1       550.8       550.2       549.6       549.0       548.1       547.0       545.7       544.1    
        542.4       540.5       538.4       535.9       533.2       533.1       535.6       537.5       539.7       541.7    
        543.5       545.0       546.0       546.5    
  36    547.6       547.4       547.0       546.5       545.8       545.3       544.5       543.4       542.0       540.3    
        538.5       536.6       534.4       531.9       531.8       534.4       536.7       538.8       540.7       542.5    
        544.1       545.3       546.2       546.6    
  37    543.9       543.6       543.2       542.6       541.9       541.5       540.8       539.7       538.2       536.4    
        534.5       532.8       530.6       530.7       533.3       535.7       537.9       539.9       541.7       543.3    
        544.7       545.7       546.5       546.9    
  38    540.1       539.8       539.4       538.7       537.8       537.8       537.3       536.2       534.6       532.4    
        529.8       529.3       529.7       532.3       534.7       536.9       539.0       540.9       542.6       544.1    
        545.3       546.3       546.9       547.2    
  39    536.3       536.0       535.5       534.7       533.9       534.3       534.0       533.1       531.4       528.5    
        528.0       530.0       531.6       533.8       536.0       538.1       540.1       541.9       543.5       544.8    
        546.0       546.8       547.4       547.7    
  40    532.5       532.1       531.6       530.6       530.6       531.3       531.2       530.4       529.0       526.9    
        528.6       530.7       532.8       535.0       537.1       539.2       541.1       542.8       544.3       545.6    
        546.6       547.4       547.9       548.2    
  41    528.9       528.0       527.8       527.8       528.5       528.9       528.8       528.2       527.2       525.9    
        528.6       531.1       533.6       535.9       538.1       540.2       542.1       543.7       545.2       546.4    
        547.3       548.0       548.5       548.7    
  42    526.1       525.2       525.8       526.1       526.5       526.7       526.6       526.1       525.4       525.0    
        528.4       531.5       534.2       536.7       539.0       541.1       543.0       544.6       546.0       547.1    
        548.0       548.6       549.0       549.2    
  43    523.8       523.1       523.7       524.1       524.4       524.5       524.4       524.1       523.1       524.4    
        528.5       531.8       534.8       537.5       539.9       542.0       543.9       545.5       546.8       547.8    
        548.6       549.1       549.5       549.7    
  44    522.0       521.3       521.7       521.9       522.2       522.3       522.3       522.4       522.3       525.1    
        528.9       532.3       535.5       538.2       540.7       542.9       544.8       546.5       547.7       548.6    
        549.1       549.6       549.9       550.1    
  45    520.6       519.9       519.4       519.6       519.8       520.0       519.8       520.6       522.0       524.7    
        529.3       533.0       536.2       539.1       541.7       543.9       545.7       547.1       548.1       548.9    
        549.5       550.0       550.3       550.5    
  46    519.5       518.9       517.5       516.9       517.1       518.0       519.2       521.6       523.8       526.4    
        530.3       533.8       537.1       539.8       542.3       544.3       546.1       547.4       548.3       549.1    
        549.7       550.2       550.5       550.7    
  47    518.9       518.4       517.3       515.9       516.2       518.3       520.2       522.5       525.1       527.9    
        531.4       534.6       537.6       540.2       542.3       544.3       546.0       547.3       548.4       549.2    
        549.9       550.4       550.7       550.9    
  48    518.7       518.1       517.1       515.6       516.0       518.4       520.6       523.0       525.7       528.8    
        531.9       534.8       537.6       540.1       542.3       544.2       545.9       547.3       548.4       549.3    
        550.0       550.5       550.8       551.0    

 HEAD WILL BE SAVED ON UNIT   51 AT END OF TIME STEP    1, STRESS PERIOD    1
1
  VOLUMETRIC BUDGET FOR ENTIRE MODEL AT END OF TIME STEP    1, STRESS PERIOD   1
  ------------------------------------------------------------------------------

     CUMULATIVE VOLUMES      L**3       RATES FOR THIS TIME STEP      L**3/T
     ------------------                 ------------------------

           IN:                                      IN:
           ---                                      ---
             STORAGE =           0.0000               STORAGE =           0.0000
       CONSTANT HEAD =           0.0000         CONSTANT HEAD =           0.0000
               WELLS =           0.0000                 WELLS =           0.0000
       RIVER LEAKAGE =      824588.5000         RIVER LEAKAGE =      824588.5000
            RECHARGE =     7200000.0000              RECHARGE =     7200000.0000

            TOTAL IN =     8024588.5000              TOTAL IN =     8024588.5000

          OUT:                                     OUT:
          ----                                     ----
             STORAGE =           0.0000               STORAGE =           0.0000
       CONSTANT HEAD =           0.0000         CONSTANT HEAD =           0.0000
               WELLS =      133000.0000                 WELLS =      133000.0000
       RIVER LEAKAGE =     7891588.5000         RIVER LEAKAGE =     7891588.5000
            RECHARGE =           0.0000              RECHARGE =           0.0000

           TOTAL OUT =     8024588.5000             TOTAL OUT =     8024588.5000

            IN - OUT =           0.0000              IN - OUT =           0.0000

 PERCENT DISCREPANCY =           0.00     PERCENT DISCREPANCY =           0.00






         TIME SUMMARY AT END OF TIME STEP    1 IN STRESS PERIOD    1
                    SECONDS     MINUTES      HOURS       DAYS        YEARS
                    -----------------------------------------------------------
   TIME STEP LENGTH  86400.      1440.0      24.000      1.0000     2.73785E-03
 STRESS PERIOD TIME  86400.      1440.0      24.000      1.0000     2.73785E-03
         TOTAL TIME  86400.      1440.0      24.000      1.0000     2.73785E-03
1

 Run end date and time (yyyy/mm/dd hh:mm:ss): 2020/03/30 16:49:11
 Elapsed run time:  0.017 Seconds

