                                  MODFLOW-2005     
      U.S. GEOLOGICAL SURVEY MODULAR FINITE-DIFFERENCE GROUND-WATER FLOW MODEL
                            VERSION 1.12.00 2/3/2017

 LIST FILE: my_model.list
                         UNIT    2

 OPENING my_model.dis
 FILE TYPE:DIS   UNIT   11   STATUS:OLD    
 FORMAT:FORMATTED              ACCESS:SEQUENTIAL          

 OPENING my_model.bas
 FILE TYPE:BAS6   UNIT   13   STATUS:OLD    
 FORMAT:FORMATTED              ACCESS:SEQUENTIAL          

 OPENING my_model.lpf
 FILE TYPE:LPF   UNIT   15   STATUS:OLD    
 FORMAT:FORMATTED              ACCESS:SEQUENTIAL          

 OPENING my_model.rch
 FILE TYPE:RCH   UNIT   19   STATUS:OLD    
 FORMAT:FORMATTED              ACCESS:SEQUENTIAL          

 OPENING my_model.riv
 FILE TYPE:RIV   UNIT   18   STATUS:OLD    
 FORMAT:FORMATTED              ACCESS:SEQUENTIAL          

 OPENING my_model.wel
 FILE TYPE:WEL   UNIT   20   STATUS:OLD    
 FORMAT:FORMATTED              ACCESS:SEQUENTIAL          

 OPENING my_model.oc
 FILE TYPE:OC   UNIT   14   STATUS:OLD    
 FORMAT:FORMATTED              ACCESS:SEQUENTIAL          

 OPENING my_model.pcg
 FILE TYPE:PCG   UNIT   27   STATUS:OLD    
 FORMAT:FORMATTED              ACCESS:SEQUENTIAL          

 OPENING my_model.cbc
 FILE TYPE:DATA(BINARY)   UNIT    1   STATUS:REPLACE
 FORMAT:BINARY                 ACCESS:SEQUENTIAL          

 OPENING my_model.hds
 FILE TYPE:DATA(BINARY)   UNIT   51   STATUS:REPLACE
 FORMAT:BINARY                 ACCESS:SEQUENTIAL          

 BAS -- BASIC PACKAGE, VERSION 7, 5/2/2005 INPUT READ FROM UNIT   13
 
 MODFLOW was compiled using mixed precision
 Precision of REAL variables:           6
 Precision of DOUBLE PRECISION variables:          15

 DISCRETIZATION INPUT DATA READ FROM UNIT   11
 # DIS package for  MODFLOW-2005, generated by Flopy.
    1 LAYERS       100 ROWS       156 COLUMNS
    1 STRESS PERIOD(S) IN SIMULATION
 MODEL TIME UNIT IS DAYS
 MODEL LENGTH UNIT IS FEET
  Confining bed flag for each layer:
   0

                     DELR =   2500.00    

                     DELC =   2500.00    

 TOP ELEVATION OF LAYER 1 =   0.00000    

   MODEL LAYER BOTTOM EL. =  -50.0000     FOR LAYER   1


 STRESS PERIOD     LENGTH       TIME STEPS     MULTIPLIER FOR DELT    SS FLAG
 ----------------------------------------------------------------------------
        1         1.000000          1                    1.000         SS

 STEADY-STATE SIMULATION



 
 # BAS6 package for  MODFLOW-2005, generated by Flopy.                           
 THE FREE FORMAT OPTION HAS BEEN SELECTED



                     BOUNDARY ARRAY FOR LAYER   1
 READING ON UNIT   13 WITH FORMAT: (156I10)            

 AQUIFER HEAD WILL BE SET TO  -999.99     AT ALL NO-FLOW NODES (IBOUND=0).



                       INITIAL HEAD FOR LAYER   1
 READING ON UNIT   13 WITH FORMAT: (156E15.6)          
 # OC package for  MODFLOW-2005, generated by Flopy.

 OUTPUT CONTROL IS SPECIFIED ONLY AT TIME STEPS FOR WHICH OUTPUT IS DESIRED
 COMPACT CELL-BY-CELL BUDGET FILES WILL BE WRITTEN
 AUXILIARY DATA WILL BE SAVED IN CELL-BY-CELL BUDGET FILES
 HEAD PRINT FORMAT CODE IS   0    DRAWDOWN PRINT FORMAT CODE IS   0
 HEADS WILL BE SAVED ON UNIT   51    DRAWDOWNS WILL BE SAVED ON UNIT    0

 LPF -- LAYER-PROPERTY FLOW PACKAGE, VERSION 7, 5/2/2005
         INPUT READ FROM UNIT   15
 # LPF package for  MODFLOW-2005, generated by Flopy.
 CELL-BY-CELL FLOWS WILL BE SAVED ON UNIT    1
 HEAD AT CELLS THAT CONVERT TO DRY= -1.00000E+30
 No named parameters

   LAYER FLAGS:
 LAYER       LAYTYP        LAYAVG         CHANI        LAYVKA        LAYWET
 ---------------------------------------------------------------------------
    1             1             0     1.000E+00             0             0

   INTERPRETATION OF LAYER FLAGS:
                        INTERBLOCK     HORIZONTAL    DATA IN
         LAYER TYPE   TRANSMISSIVITY   ANISOTROPY   ARRAY VKA   WETTABILITY
 LAYER      (LAYTYP)      (LAYAVG)       (CHANI)      (LAYVKA)      (LAYWET)
 ---------------------------------------------------------------------------
    1   CONVERTIBLE      HARMONIC     1.000E+00    VERTICAL K  NON-WETTABLE

 WETTING CAPABILITY IS NOT ACTIVE IN ANY LAYER



              HYD. COND. ALONG ROWS FOR LAYER   1
 READING ON UNIT   15 WITH FORMAT: (156E15.6)          



                VERTICAL HYD. COND. FOR LAYER   1
 READING ON UNIT   15 WITH FORMAT: (156E15.6)          

 WEL -- WELL PACKAGE, VERSION 7, 5/2/2005 INPUT READ FROM UNIT   20
 # WEL package for  MODFLOW-2005, generated by Flopy.
 No named parameters
 MAXIMUM OF      1 ACTIVE WELLS AT ONE TIME


     0 Well parameters

 RIV -- RIVER PACKAGE, VERSION 7, 5/2/2005 INPUT READ FROM UNIT   18
 # RIV package for  MODFLOW-2005, generated by Flopy.
 No named parameters
 MAXIMUM OF   2175 ACTIVE RIVER REACHES AT ONE TIME


     0 River parameters

 RCH -- RECHARGE PACKAGE, VERSION 7, 5/2/2005 INPUT READ FROM UNIT   19
 # RCH package for  MODFLOW-2005, generated by Flopy.
 No named parameters
 OPTION 3 -- RECHARGE TO HIGHEST ACTIVE NODE IN EACH VERTICAL COLUMN


     0 Recharge parameters

 PCG -- CONJUGATE-GRADIENT SOLUTION PACKAGE, VERSION 7, 5/2/2005
 # PCG package for  MODFLOW-2005, generated by Flopy.
 MAXIMUM OF     50 CALLS OF SOLUTION ROUTINE
 MAXIMUM OF     30 INTERNAL ITERATIONS PER CALL TO SOLUTION ROUTINE
 MATRIX PRECONDITIONING TYPE :    1



                                    SOLUTION BY THE CONJUGATE-GRADIENT METHOD
                                   -------------------------------------------
                    MAXIMUM NUMBER OF CALLS TO PCG ROUTINE =       50
                        MAXIMUM ITERATIONS PER CALL TO PCG =       30
                               MATRIX PRECONDITIONING TYPE =        1
        RELAXATION FACTOR (ONLY USED WITH PRECOND. TYPE 1) =    0.10000E+01
 PARAMETER OF POLYNOMIAL PRECOND. = 2 (2) OR IS CALCULATED :        0
                         HEAD CHANGE CRITERION FOR CLOSURE =    0.10000E-04
                     RESIDUAL CHANGE CRITERION FOR CLOSURE =    0.10000E-04
            PCG HEAD AND RESIDUAL CHANGE PRINTOUT INTERVAL =      999
     PRINTING FROM SOLVER IS LIMITED(1) OR SUPPRESSED (>1) =        3
                            STEADY-STATE DAMPING PARAMETER =    0.10000E+01
                               TRANSIENT DAMPING PARAMETER =    0.10000E+01
1
                            STRESS PERIOD NO.    1, LENGTH =   1.000000    
                            -----------------------------------------------

                              NUMBER OF TIME STEPS =     1

                               MULTIPLIER FOR DELT =     1.000

                            INITIAL TIME STEP SIZE =   1.000000    

 WELL NO.  LAYER   ROW   COL   STRESS RATE         
 --------------------------------------------------
      1      1     11     21     -0.1330E+06

      1 WELL 

 REACH NO.  LAYER   ROW   COL     STAGE      CONDUCTANCE     BOTTOM EL.         
 -------------------------------------------------------------------------------
      1      1      1     29       508.8           5000.           505.8    
      2      1      1     30       508.8           5000.           505.8    
      3      1      1     78       586.4           5000.           583.4    
      4      1      1     99       446.6           5000.           443.6    
      5      1      1    100       445.8           5000.           442.8    
      6      1      1    104       445.8           5000.           442.8    
      7      1      1    108       454.0           5000.           451.0    
      8      1      1    109       455.0           5000.           452.0    
      9      1      1    114       504.8           5000.           501.8    
     10      1      1    115       506.6           5000.           503.6    
     11      1      1    116       512.4           5000.           509.4    
     12      1      1    130       739.9           5000.           736.9    
     13      1      1    144       648.3           5000.           645.3    
     14      1      1    145       647.6           5000.           644.6    
     15      1      1    148       627.1           5000.           624.1    
     16      1      1    149       627.7           5000.           624.7    
     17      1      1    150       628.2           5000.           625.2    
     18      1      1    151       628.4           5000.           625.4    
     19      1      1    155       638.6           5000.           635.6    
     20      1      1    156       638.6           5000.           635.6    
     21      1      2     28       508.8           5000.           505.8    
     22      1      2     29       508.8           5000.           505.8    
     23      1      2     77       573.1           5000.           570.1    
     24      1      2     78       576.7           5000.           573.7    
     25      1      2    100       445.8           5000.           442.8    
     26      1      2    101       445.8           5000.           442.8    
     27      1      2    102       445.8           5000.           442.8    
     28      1      2    103       445.8           5000.           442.8    
     29      1      2    104       445.8           5000.           442.8    
     30      1      2    130       737.1           5000.           734.1    
     31      1      2    144       636.5           5000.           633.5    
     32      1      2    145       632.9           5000.           629.9    
     33      1      2    146       628.5           5000.           625.5    
     34      1      2    148       619.0           5000.           616.0    
     35      1      2    149       620.3           5000.           617.3    
     36      1      2    150       628.2           5000.           625.2    
     37      1      2    151       628.8           5000.           625.8    
     38      1      2    152       628.8           5000.           625.8    
     39      1      2    153       628.8           5000.           625.8    
     40      1      2    154       638.6           5000.           635.6    
     41      1      2    155       638.6           5000.           635.6    
     42      1      2    156       638.6           5000.           635.6    
     43      1      3     27       508.3           5000.           505.3    
     44      1      3     28       508.8           5000.           505.8    
     45      1      3     29       506.8           5000.           503.8    
     46      1      3     30       511.0           5000.           508.0    
     47      1      3     31       518.7           5000.           515.7    
     48      1      3     32       525.3           5000.           522.3    
     49      1      3     77       564.7           5000.           561.7    
     50      1      3    104       445.8           5000.           442.8    
     51      1      3    130       729.4           5000.           726.4    
     52      1      3    131       720.9           5000.           717.9    
     53      1      3    145       633.2           5000.           630.2    
     54      1      3    146       626.1           5000.           623.1    
     55      1      3    147       619.0           5000.           616.0    
     56      1      3    148       619.0           5000.           616.0    
     57      1      3    153       628.8           5000.           625.8    
     58      1      3    154       628.8           5000.           625.8    
     59      1      3    155       638.6           5000.           635.6    
     60      1      3    156       638.6           5000.           635.6    
     61      1      4     27       500.3           5000.           497.3    
     62      1      4     28       500.3           5000.           497.3    
     63      1      4     29       501.8           5000.           498.8    
     64      1      4     32       535.9           5000.           532.9    
     65      1      4     33       534.6           5000.           531.6    
     66      1      4     34       549.3           5000.           546.3    
     67      1      4     35       563.1           5000.           560.1    
     68      1      4     77       558.1           5000.           555.1    
     69      1      4     90       530.0           5000.           527.0    
     70      1      4    103       445.8           5000.           442.8    
     71      1      4    104       445.8           5000.           442.8    
     72      1      4    131       718.5           5000.           715.5    
     73      1      4    146       619.0           5000.           616.0    
     74      1      4    147       619.0           5000.           616.0    
     75      1      4    148       619.0           5000.           616.0    
     76      1      4    153       634.4           5000.           631.4    
     77      1      4    154       637.3           5000.           634.3    
     78      1      4    155       638.0           5000.           635.0    
     79      1      4    156       644.0           5000.           641.0    
     80      1      5     28       500.3           5000.           497.3    
     81      1      5     77       553.7           5000.           550.7    
     82      1      5     78       551.7           5000.           548.7    
     83      1      5     90       526.8           5000.           523.8    
     84      1      5     91       518.8           5000.           515.8    
     85      1      5    102       445.8           5000.           442.8    
     86      1      5    103       445.8           5000.           442.8    
     87      1      5    131       718.1           5000.           715.1    
     88      1      5    132       718.1           5000.           715.1    
     89      1      5    145       619.0           5000.           616.0    
     90      1      5    146       619.0           5000.           616.0    
     91      1      5    147       619.0           5000.           616.0    
     92      1      6     28       500.1           5000.           497.1    
     93      1      6     78       544.1           5000.           541.1    
     94      1      6     79       538.4           5000.           535.4    
     95      1      6     90       512.6           5000.           509.6    
     96      1      6     91       516.1           5000.           513.1    
     97      1      6    101       445.8           5000.           442.8    
     98      1      6    102       445.8           5000.           442.8    
     99      1      6    131       718.0           5000.           715.0    
    100      1      6    132       709.5           5000.           706.5    
    101      1      6    133       708.7           5000.           705.7    
    102      1      6    143       608.5           5000.           605.5    
    103      1      6    144       608.5           5000.           605.5    
    104      1      6    145       617.2           5000.           614.2    
    105      1      6    146       619.0           5000.           616.0    
    106      1      7     25       498.6           5000.           495.6    
    107      1      7     26       498.6           5000.           495.6    
    108      1      7     27       498.6           5000.           495.6    
    109      1      7     28       498.6           5000.           495.6    
    110      1      7     79       536.4           5000.           533.4    
    111      1      7     90       497.5           5000.           494.5    
    112      1      7     91       498.4           5000.           495.4    
    113      1      7    101       445.8           5000.           442.8    
    114      1      7    132       698.6           5000.           695.6    
    115      1      7    133       698.7           5000.           695.7    
    116      1      7    143       608.5           5000.           605.5    
    117      1      7    144       608.5           5000.           605.5    
    118      1      7    145       619.0           5000.           616.0    
    119      1      8     23       496.3           5000.           493.3    
    120      1      8     24       497.6           5000.           494.6    
    121      1      8     25       498.6           5000.           495.6    
    122      1      8     79       530.9           5000.           527.9    
    123      1      8     82       551.6           5000.           548.6    
    124      1      8     83       549.6           5000.           546.6    
    125      1      8     90       497.3           5000.           494.3    
    126      1      8     91       487.7           5000.           484.7    
    127      1      8    100       445.8           5000.           442.8    
    128      1      8    101       445.8           5000.           442.8    
    129      1      8    102       446.6           5000.           443.6    
    130      1      8    132       698.5           5000.           695.5    
    131      1      8    144       608.5           5000.           605.5    
    132      1      9     22       494.0           5000.           491.0    
    133      1      9     23       494.8           5000.           491.8    
    134      1      9     79       522.7           5000.           519.7    
    135      1      9     81       530.6           5000.           527.6    
    136      1      9     82       537.6           5000.           534.6    
    137      1      9     83       545.6           5000.           542.6    
    138      1      9     90       481.3           5000.           478.3    
    139      1      9     91       483.1           5000.           480.1    
    140      1      9     99       445.8           5000.           442.8    
    141      1      9    100       445.8           5000.           442.8    
    142      1      9    102       449.0           5000.           446.0    
    143      1      9    103       449.9           5000.           446.9    
    144      1      9    131       694.8           5000.           691.8    
    145      1      9    132       692.2           5000.           689.2    
    146      1      9    142       606.5           5000.           603.5    
    147      1      9    143       608.0           5000.           605.0    
    148      1      9    144       608.5           5000.           605.5    
    149      1      9    149       690.1           5000.           687.1    
    150      1      9    150       698.0           5000.           695.0    
    151      1      9    151       705.7           5000.           702.7    
    152      1     10     22       492.5           5000.           489.5    
    153      1     10     68       526.8           5000.           523.8    
    154      1     10     79       517.2           5000.           514.2    
    155      1     10     80       518.0           5000.           515.0    
    156      1     10     81       525.2           5000.           522.2    
    157      1     10     82       536.4           5000.           533.4    
    158      1     10     90       481.3           5000.           478.3    
    159      1     10     91       481.3           5000.           478.3    
    160      1     10     99       445.8           5000.           442.8    
    161      1     10    103       459.7           5000.           456.7    
    162      1     10    104       471.6           5000.           468.6    
    163      1     10    131       685.0           5000.           682.0    
    164      1     10    132       690.7           5000.           687.7    
    165      1     10    141       603.6           5000.           600.6    
    166      1     10    142       605.9           5000.           602.9    
    167      1     10    147       668.3           5000.           665.3    
    168      1     10    148       671.1           5000.           668.1    
    169      1     10    149       686.0           5000.           683.0    
    170      1     10    151       705.3           5000.           702.3    
    171      1     10    152       712.3           5000.           709.3    
    172      1     11     22       492.5           5000.           489.5    
    173      1     11     23       490.5           5000.           487.5    
    174      1     11     68       516.6           5000.           513.6    
    175      1     11     75       498.7           5000.           495.7    
    176      1     11     76       501.1           5000.           498.1    
    177      1     11     77       507.6           5000.           504.6    
    178      1     11     78       508.9           5000.           505.9    
    179      1     11     79       514.6           5000.           511.6    
    180      1     11     80       516.6           5000.           513.6    
    181      1     11     91       468.4           5000.           465.4    
    182      1     11     92       463.2           5000.           460.2    
    183      1     11     93       457.8           5000.           454.8    
    184      1     11     94       454.2           5000.           451.2    
    185      1     11     99       445.8           5000.           442.8    
    186      1     11    104       476.5           5000.           473.5    
    187      1     11    105       487.4           5000.           484.4    
    188      1     11    106       500.1           5000.           497.1    
    189      1     11    130       676.4           5000.           673.4    
    190      1     11    131       679.7           5000.           676.7    
    191      1     11    141       601.5           5000.           598.5    
    192      1     11    147       657.0           5000.           654.0    
    193      1     11    148       667.5           5000.           664.5    
    194      1     11    149       683.7           5000.           680.7    
    195      1     12     23       490.1           5000.           487.1    
    196      1     12     24       488.5           5000.           485.5    
    197      1     12     25       487.8           5000.           484.8    
    198      1     12     26       487.5           5000.           484.5    
    199      1     12     27       486.6           5000.           483.6    
    200      1     12     28       486.0           5000.           483.0    
    201      1     12     68       508.5           5000.           505.5    
    202      1     12     74       488.2           5000.           485.2    
    203      1     12     75       497.7           5000.           494.7    
    204      1     12     76       499.2           5000.           496.2    
    205      1     12     77       505.7           5000.           502.7    
    206      1     12     78       509.7           5000.           506.7    
    207      1     12     94       445.8           5000.           442.8    
    208      1     12     99       445.8           5000.           442.8    
    209      1     12    106       501.0           5000.           498.0    
    210      1     12    129       659.4           5000.           656.4    
    211      1     12    130       664.0           5000.           661.0    
    212      1     12    131       679.7           5000.           676.7    
    213      1     12    141       598.8           5000.           595.8    
    214      1     12    142       613.9           5000.           610.9    
    215      1     12    143       615.0           5000.           612.0    
    216      1     12    144       627.6           5000.           624.6    
    217      1     12    145       638.0           5000.           635.0    
    218      1     12    146       647.9           5000.           644.9    
    219      1     12    147       655.2           5000.           652.2    
    220      1     13      4       628.6           5000.           625.6    
    221      1     13     28       485.0           5000.           482.0    
    222      1     13     68       496.8           5000.           493.8    
    223      1     13     69       494.9           5000.           491.9    
    224      1     13     74       485.8           5000.           482.8    
    225      1     13     75       483.3           5000.           480.3    
    226      1     13     94       445.8           5000.           442.8    
    227      1     13     95       445.8           5000.           442.8    
    228      1     13     99       445.8           5000.           442.8    
    229      1     13    100       445.8           5000.           442.8    
    230      1     13    129       651.5           5000.           648.5    
    231      1     13    139       598.4           5000.           595.4    
    232      1     13    140       598.4           5000.           595.4    
    233      1     13    141       598.4           5000.           595.4    
    234      1     13    142       605.0           5000.           602.0    
    235      1     13    143       623.8           5000.           620.8    
    236      1     14      4       627.9           5000.           624.9    
    237      1     14     28       484.2           5000.           481.2    
    238      1     14     69       487.2           5000.           484.2    
    239      1     14     74       478.5           5000.           475.5    
    240      1     14     75       481.9           5000.           478.9    
    241      1     14     94       445.8           5000.           442.8    
    242      1     14     95       445.8           5000.           442.8    
    243      1     14     99       445.8           5000.           442.8    
    244      1     14    100       445.8           5000.           442.8    
    245      1     14    125       633.0           5000.           630.0    
    246      1     14    126       622.5           5000.           619.5    
    247      1     14    127       624.4           5000.           621.4    
    248      1     14    128       644.7           5000.           641.7    
    249      1     14    129       651.6           5000.           648.6    
    250      1     14    136       588.7           5000.           585.7    
    251      1     14    137       598.4           5000.           595.4    
    252      1     14    139       598.4           5000.           595.4    
    253      1     15      2       618.5           5000.           615.5    
    254      1     15      3       618.7           5000.           615.7    
    255      1     15      4       627.2           5000.           624.2    
    256      1     15     28       483.6           5000.           480.6    
    257      1     15     69       480.8           5000.           477.8    
    258      1     15     70       477.4           5000.           474.4    
    259      1     15     73       478.5           5000.           475.5    
    260      1     15     74       478.5           5000.           475.5    
    261      1     15     94       445.8           5000.           442.8    
    262      1     15     98       445.8           5000.           442.8    
    263      1     15     99       445.8           5000.           442.8    
    264      1     15    116       641.3           5000.           638.3    
    265      1     15    125       624.8           5000.           621.8    
    266      1     15    126       613.2           5000.           610.2    
    267      1     15    127       629.3           5000.           626.3    
    268      1     15    135       588.7           5000.           585.7    
    269      1     15    136       588.7           5000.           585.7    
    270      1     15    137       588.7           5000.           585.7    
    271      1     15    138       598.4           5000.           595.4    
    272      1     15    139       598.4           5000.           595.4    
    273      1     16      1       616.2           5000.           613.2    
    274      1     16      2       618.2           5000.           615.2    
    275      1     16     27       482.5           5000.           479.5    
    276      1     16     28       482.9           5000.           479.9    
    277      1     16     31       511.6           5000.           508.6    
    278      1     16     32       513.2           5000.           510.2    
    279      1     16     70       470.9           5000.           467.9    
    280      1     16     71       463.0           5000.           460.0    
    281      1     16     72       458.1           5000.           455.1    
    282      1     16     73       458.7           5000.           455.7    
    283      1     16     74       478.5           5000.           475.5    
    284      1     16     92       445.8           5000.           442.8    
    285      1     16     93       445.8           5000.           442.8    
    286      1     16     94       445.8           5000.           442.8    
    287      1     16     95       445.8           5000.           442.8    
    288      1     16     96       445.8           5000.           442.8    
    289      1     16     97       445.8           5000.           442.8    
    290      1     16     98       445.8           5000.           442.8    
    291      1     16    115       631.4           5000.           628.4    
    292      1     16    116       632.5           5000.           629.5    
    293      1     16    124       613.9           5000.           610.9    
    294      1     16    125       617.7           5000.           614.7    
    295      1     16    126       605.9           5000.           602.9    
    296      1     16    132       585.2           5000.           582.2    
    297      1     16    133       588.5           5000.           585.5    
    298      1     16    134       588.6           5000.           585.6    
    299      1     16    135       588.7           5000.           585.7    
    300      1     17      1       612.9           5000.           609.9    
    301      1     17     26       481.7           5000.           478.7    
    302      1     17     27       481.2           5000.           478.2    
    303      1     17     31       508.1           5000.           505.1    
    304      1     17     56       598.6           5000.           595.6    
    305      1     17     72       455.7           5000.           452.7    
    306      1     17     73       461.5           5000.           458.5    
    307      1     17     74       478.5           5000.           475.5    
    308      1     17     85       445.8           5000.           442.8    
    309      1     17     86       445.8           5000.           442.8    
    310      1     17     87       445.8           5000.           442.8    
    311      1     17     88       445.8           5000.           442.8    
    312      1     17     89       445.8           5000.           442.8    
    313      1     17     90       445.8           5000.           442.8    
    314      1     17     91       445.8           5000.           442.8    
    315      1     17     92       445.8           5000.           442.8    
    316      1     17     96       445.8           5000.           442.8    
    317      1     17     97       445.8           5000.           442.8    
    318      1     17    115       625.3           5000.           622.3    
    319      1     17    124       598.2           5000.           595.2    
    320      1     17    125       595.8           5000.           592.8    
    321      1     17    126       602.3           5000.           599.3    
    322      1     17    132       580.1           5000.           577.1    
    323      1     18      1       609.6           5000.           606.6    
    324      1     18     26       480.6           5000.           477.6    
    325      1     18     27       480.5           5000.           477.5    
    326      1     18     30       503.5           5000.           500.5    
    327      1     18     31       504.7           5000.           501.7    
    328      1     18     56       588.6           5000.           585.6    
    329      1     18     71       455.7           5000.           452.7    
    330      1     18     72       455.7           5000.           452.7    
    331      1     18     73       465.1           5000.           462.1    
    332      1     18     82       445.2           5000.           442.2    
    333      1     18     83       445.8           5000.           442.8    
    334      1     18     84       445.8           5000.           442.8    
    335      1     18     85       445.8           5000.           442.8    
    336      1     18     91       445.8           5000.           442.8    
    337      1     18    115       617.6           5000.           614.6    
    338      1     18    124       591.2           5000.           588.2    
    339      1     18    125       584.7           5000.           581.7    
    340      1     18    130       578.7           5000.           575.7    
    341      1     18    131       578.7           5000.           575.7    
    342      1     18    132       578.7           5000.           575.7    
    343      1     19      1       608.6           5000.           605.6    
    344      1     19     27       478.5           5000.           475.5    
    345      1     19     30       498.4           5000.           495.4    
    346      1     19     31       501.7           5000.           498.7    
    347      1     19     55       581.7           5000.           578.7    
    348      1     19     56       588.1           5000.           585.1    
    349      1     19     71       456.0           5000.           453.0    
    350      1     19     72       453.2           5000.           450.2    
    351      1     19     80       445.2           5000.           442.2    
    352      1     19     81       445.2           5000.           442.2    
    353      1     19     82       445.2           5000.           442.2    
    354      1     19     91       445.8           5000.           442.8    
    355      1     19    115       617.3           5000.           614.3    
    356      1     19    125       583.9           5000.           580.9    
    357      1     19    130       578.7           5000.           575.7    
    358      1     19    131       578.7           5000.           575.7    
    359      1     20      1       608.6           5000.           605.6    
    360      1     20     25       478.5           5000.           475.5    
    361      1     20     26       478.5           5000.           475.5    
    362      1     20     27       478.5           5000.           475.5    
    363      1     20     29       489.2           5000.           486.2    
    364      1     20     30       496.3           5000.           493.3    
    365      1     20     31       499.2           5000.           496.2    
    366      1     20     55       575.5           5000.           572.5    
    367      1     20     71       453.2           5000.           450.2    
    368      1     20     79       444.9           5000.           441.9    
    369      1     20     80       444.9           5000.           441.9    
    370      1     20     91       445.8           5000.           442.8    
    371      1     20    115       609.0           5000.           606.0    
    372      1     20    125       583.9           5000.           580.9    
    373      1     20    126       577.5           5000.           574.5    
    374      1     20    129       567.9           5000.           564.9    
    375      1     20    130       572.7           5000.           569.7    
    376      1     21      1       608.6           5000.           605.6    
    377      1     21     14       535.6           5000.           532.6    
    378      1     21     15       526.8           5000.           523.8    
    379      1     21     16       518.7           5000.           515.7    
    380      1     21     17       517.2           5000.           514.2    
    381      1     21     25       478.5           5000.           475.5    
    382      1     21     26       478.5           5000.           475.5    
    383      1     21     27       480.1           5000.           477.1    
    384      1     21     28       488.2           5000.           485.2    
    385      1     21     29       488.8           5000.           485.8    
    386      1     21     31       505.9           5000.           502.9    
    387      1     21     32       508.0           5000.           505.0    
    388      1     21     33       512.4           5000.           509.4    
    389      1     21     34       518.5           5000.           515.5    
    390      1     21     35       518.5           5000.           515.5    
    391      1     21     36       526.9           5000.           523.9    
    392      1     21     37       528.6           5000.           525.6    
    393      1     21     38       536.6           5000.           533.6    
    394      1     21     39       538.5           5000.           535.5    
    395      1     21     54       570.3           5000.           567.3    
    396      1     21     55       573.8           5000.           570.8    
    397      1     21     70       453.2           5000.           450.2    
    398      1     21     71       453.2           5000.           450.2    
    399      1     21     77       445.2           5000.           442.2    
    400      1     21     78       445.2           5000.           442.2    
    401      1     21     79       445.2           5000.           442.2    
    402      1     21     91       445.8           5000.           442.8    
    403      1     21    114       600.0           5000.           597.0    
    404      1     21    115       607.7           5000.           604.7    
    405      1     21    126       569.0           5000.           566.0    
    406      1     21    128       565.6           5000.           562.6    
    407      1     21    129       566.9           5000.           563.9    
    408      1     22      1       608.6           5000.           605.6    
    409      1     22     17       512.0           5000.           509.0    
    410      1     22     18       504.0           5000.           501.0    
    411      1     22     19       499.9           5000.           496.9    
    412      1     22     20       486.9           5000.           483.9    
    413      1     22     21       485.0           5000.           482.0    
    414      1     22     25       478.5           5000.           475.5    
    415      1     22     54       570.3           5000.           567.3    
    416      1     22     55       570.3           5000.           567.3    
    417      1     22     71       449.6           5000.           446.6    
    418      1     22     72       444.5           5000.           441.5    
    419      1     22     75       444.4           5000.           441.4    
    420      1     22     76       444.4           5000.           441.4    
    421      1     22     77       444.4           5000.           441.4    
    422      1     22     91       445.8           5000.           442.8    
    423      1     22     92       446.0           5000.           443.0    
    424      1     22    114       590.3           5000.           587.3    
    425      1     22    126       566.0           5000.           563.0    
    426      1     22    127       562.4           5000.           559.4    
    427      1     22    128       563.4           5000.           560.4    
    428      1     23     21       482.1           5000.           479.1    
    429      1     23     22       481.8           5000.           478.8    
    430      1     23     24       478.5           5000.           475.5    
    431      1     23     25       478.5           5000.           475.5    
    432      1     23     54       570.3           5000.           567.3    
    433      1     23     55       570.3           5000.           567.3    
    434      1     23     72       444.5           5000.           441.5    
    435      1     23     74       444.4           5000.           441.4    
    436      1     23     75       444.4           5000.           441.4    
    437      1     23     91       446.0           5000.           443.0    
    438      1     23    113       587.5           5000.           584.5    
    439      1     23    114       587.6           5000.           584.6    
    440      1     23    126       558.8           5000.           555.8    
    441      1     23    127       560.9           5000.           557.9    
    442      1     24     22       481.8           5000.           478.8    
    443      1     24     23       478.9           5000.           475.9    
    444      1     24     24       478.4           5000.           475.4    
    445      1     24     55       570.3           5000.           567.3    
    446      1     24     56       553.0           5000.           550.0    
    447      1     24     72       444.5           5000.           441.5    
    448      1     24     74       444.4           5000.           441.4    
    449      1     24     91       446.0           5000.           443.0    
    450      1     24    113       583.7           5000.           580.7    
    451      1     24    124       558.7           5000.           555.7    
    452      1     24    125       558.8           5000.           555.8    
    453      1     24    126       558.8           5000.           555.8    
    454      1     24    127       558.8           5000.           555.8    
    455      1     24    128       559.6           5000.           556.6    
    456      1     24    146       688.8           5000.           685.8    
    457      1     24    147       688.7           5000.           685.7    
    458      1     25     23       473.0           5000.           470.0    
    459      1     25     24       477.8           5000.           474.8    
    460      1     25     54       547.7           5000.           544.7    
    461      1     25     55       548.7           5000.           545.7    
    462      1     25     56       552.5           5000.           549.5    
    463      1     25     72       444.4           5000.           441.4    
    464      1     25     74       444.4           5000.           441.4    
    465      1     25     91       449.4           5000.           446.4    
    466      1     25    112       577.0           5000.           574.0    
    467      1     25    113       577.0           5000.           574.0    
    468      1     25    124       558.7           5000.           555.7    
    469      1     25    146       688.2           5000.           685.2    
    470      1     26     21       468.6           5000.           465.6    
    471      1     26     22       468.6           5000.           465.6    
    472      1     26     23       468.6           5000.           465.6    
    473      1     26     52       536.9           5000.           533.9    
    474      1     26     53       538.5           5000.           535.5    
    475      1     26     54       545.2           5000.           542.2    
    476      1     26     72       444.4           5000.           441.4    
    477      1     26     73       444.4           5000.           441.4    
    478      1     26     74       444.4           5000.           441.4    
    479      1     26     91       449.4           5000.           446.4    
    480      1     26    111       567.0           5000.           564.0    
    481      1     26    112       567.0           5000.           564.0    
    482      1     26    124       554.0           5000.           551.0    
    483      1     26    146       678.9           5000.           675.9    
    484      1     27     19       491.6           5000.           488.6    
    485      1     27     20       477.0           5000.           474.0    
    486      1     27     21       468.6           5000.           465.6    
    487      1     27     22       468.6           5000.           465.6    
    488      1     27     23       468.6           5000.           465.6    
    489      1     27     51       534.5           5000.           531.5    
    490      1     27     52       536.1           5000.           533.1    
    491      1     27     53       538.4           5000.           535.4    
    492      1     27     74       444.4           5000.           441.4    
    493      1     27     90       453.8           5000.           450.8    
    494      1     27     91       450.5           5000.           447.5    
    495      1     27    110       549.0           5000.           546.0    
    496      1     27    111       555.3           5000.           552.3    
    497      1     27    124       547.8           5000.           544.8    
    498      1     27    145       671.9           5000.           668.9    
    499      1     27    146       675.1           5000.           672.1    
    500      1     28     17       504.3           5000.           501.3    
    501      1     28     18       494.3           5000.           491.3    
    502      1     28     19       492.4           5000.           489.4    
    503      1     28     21       468.6           5000.           465.6    
    504      1     28     22       468.6           5000.           465.6    
    505      1     28     23       468.6           5000.           465.6    
    506      1     28     45       526.4           5000.           523.4    
    507      1     28     48       525.5           5000.           522.5    
    508      1     28     49       525.5           5000.           522.5    
    509      1     28     50       525.5           5000.           522.5    
    510      1     28     51       528.6           5000.           525.6    
    511      1     28     73       444.4           5000.           441.4    
    512      1     28     74       444.4           5000.           441.4    
    513      1     28     75       446.1           5000.           443.1    
    514      1     28     76       446.1           5000.           443.1    
    515      1     28     90       458.6           5000.           455.6    
    516      1     28     91       453.7           5000.           450.7    
    517      1     28     92       452.8           5000.           449.8    
    518      1     28    110       543.4           5000.           540.4    
    519      1     28    124       546.4           5000.           543.4    
    520      1     28    135       0.000           5000.          -3.000    
    521      1     28    136       611.4           5000.           608.4    
    522      1     28    143       656.2           5000.           653.2    
    523      1     28    144       657.4           5000.           654.4    
    524      1     28    145       669.1           5000.           666.1    
    525      1     29     16       512.3           5000.           509.3    
    526      1     29     17       508.2           5000.           505.2    
    527      1     29     21       468.6           5000.           465.6    
    528      1     29     45       513.9           5000.           510.9    
    529      1     29     47       511.9           5000.           508.9    
    530      1     29     48       525.5           5000.           522.5    
    531      1     29     72       444.4           5000.           441.4    
    532      1     29     73       444.4           5000.           441.4    
    533      1     29     74       446.1           5000.           443.1    
    534      1     29     75       446.1           5000.           443.1    
    535      1     29     89       458.6           5000.           455.6    
    536      1     29     90       458.6           5000.           455.6    
    537      1     29     92       456.8           5000.           453.8    
    538      1     29    109       527.0           5000.           524.0    
    539      1     29    110       542.8           5000.           539.8    
    540      1     29    123       543.3           5000.           540.3    
    541      1     29    124       544.2           5000.           541.2    
    542      1     29    134       605.1           5000.           602.1    
    543      1     29    135       610.1           5000.           607.1    
    544      1     29    142       651.6           5000.           648.6    
    545      1     29    143       653.4           5000.           650.4    
    546      1     30     16       519.3           5000.           516.3    
    547      1     30     21       468.6           5000.           465.6    
    548      1     30     45       508.4           5000.           505.4    
    549      1     30     46       508.4           5000.           505.4    
    550      1     30     47       508.5           5000.           505.5    
    551      1     30     71       444.4           5000.           441.4    
    552      1     30     72       444.4           5000.           441.4    
    553      1     30     73       446.1           5000.           443.1    
    554      1     30     74       446.1           5000.           443.1    
    555      1     30     89       458.6           5000.           455.6    
    556      1     30     92       456.6           5000.           453.6    
    557      1     30    108       508.4           5000.           505.4    
    558      1     30    109       521.9           5000.           518.9    
    559      1     30    121       539.1           5000.           536.1    
    560      1     30    122       539.8           5000.           536.8    
    561      1     30    123       542.3           5000.           539.3    
    562      1     30    128       569.0           5000.           566.0    
    563      1     30    129       574.5           5000.           571.5    
    564      1     30    130       576.2           5000.           573.2    
    565      1     30    131       582.1           5000.           579.1    
    566      1     30    132       587.5           5000.           584.5    
    567      1     30    133       593.8           5000.           590.8    
    568      1     30    134       602.8           5000.           599.8    
    569      1     30    142       649.2           5000.           646.2    
    570      1     31     14       540.8           5000.           537.8    
    571      1     31     15       537.6           5000.           534.6    
    572      1     31     16       527.2           5000.           524.2    
    573      1     31     21       468.6           5000.           465.6    
    574      1     31     22       469.9           5000.           466.9    
    575      1     31     43       495.9           5000.           492.9    
    576      1     31     44       498.0           5000.           495.0    
    577      1     31     45       504.8           5000.           501.8    
    578      1     31     71       444.4           5000.           441.4    
    579      1     31     72       444.4           5000.           441.4    
    580      1     31     73       446.1           5000.           443.1    
    581      1     31     88       463.6           5000.           460.6    
    582      1     31     89       458.7           5000.           455.7    
    583      1     31     90       464.0           5000.           461.0    
    584      1     31     92       456.6           5000.           453.6    
    585      1     31     93       456.6           5000.           453.6    
    586      1     31     94       462.7           5000.           459.7    
    587      1     31    104       488.6           5000.           485.6    
    588      1     31    105       490.2           5000.           487.2    
    589      1     31    106       491.6           5000.           488.6    
    590      1     31    107       493.8           5000.           490.8    
    591      1     31    108       508.1           5000.           505.1    
    592      1     31    116       518.3           5000.           515.3    
    593      1     31    121       538.2           5000.           535.2    
    594      1     31    126       555.5           5000.           552.5    
    595      1     31    127       561.5           5000.           558.5    
    596      1     31    128       565.3           5000.           562.3    
    597      1     31    129       572.7           5000.           569.7    
    598      1     31    131       583.0           5000.           580.0    
    599      1     31    132       587.2           5000.           584.2    
    600      1     31    133       593.7           5000.           590.7    
    601      1     31    142       643.4           5000.           640.4    
    602      1     31    153       663.5           5000.           660.5    
    603      1     31    154       667.7           5000.           664.7    
    604      1     31    155       671.9           5000.           668.9    
    605      1     31    156       678.5           5000.           675.5    
    606      1     32     22       468.6           5000.           465.6    
    607      1     32     23       468.6           5000.           465.6    
    608      1     32     24       468.6           5000.           465.6    
    609      1     32     41       488.4           5000.           485.4    
    610      1     32     42       488.7           5000.           485.7    
    611      1     32     43       495.6           5000.           492.6    
    612      1     32     44       497.5           5000.           494.5    
    613      1     32     71       444.4           5000.           441.4    
    614      1     32     72       446.1           5000.           443.1    
    615      1     32     87       463.6           5000.           460.6    
    616      1     32     88       463.6           5000.           460.6    
    617      1     32     90       463.0           5000.           460.0    
    618      1     32     94       463.9           5000.           460.9    
    619      1     32     95       464.6           5000.           461.6    
    620      1     32     96       468.2           5000.           465.2    
    621      1     32     97       474.6           5000.           471.6    
    622      1     32     98       474.7           5000.           471.7    
    623      1     32     99       476.2           5000.           473.2    
    624      1     32    100       479.1           5000.           476.1    
    625      1     32    101       482.4           5000.           479.4    
    626      1     32    102       488.6           5000.           485.6    
    627      1     32    103       488.6           5000.           485.6    
    628      1     32    104       488.6           5000.           485.6    
    629      1     32    107       494.8           5000.           491.8    
    630      1     32    108       495.2           5000.           492.2    
    631      1     32    110       507.7           5000.           504.7    
    632      1     32    111       507.8           5000.           504.8    
    633      1     32    112       508.2           5000.           505.2    
    634      1     32    113       508.5           5000.           505.5    
    635      1     32    114       510.6           5000.           507.6    
    636      1     32    116       518.3           5000.           515.3    
    637      1     32    117       518.3           5000.           515.3    
    638      1     32    118       519.1           5000.           516.1    
    639      1     32    121       538.2           5000.           535.2    
    640      1     32    123       545.8           5000.           542.8    
    641      1     32    124       547.0           5000.           544.0    
    642      1     32    125       551.7           5000.           548.7    
    643      1     32    126       555.8           5000.           552.8    
    644      1     32    141       637.4           5000.           634.4    
    645      1     32    142       642.5           5000.           639.5    
    646      1     32    152       658.8           5000.           655.8    
    647      1     32    153       660.9           5000.           657.9    
    648      1     32    154       669.0           5000.           666.0    
    649      1     33     23       468.6           5000.           465.6    
    650      1     33     24       468.6           5000.           465.6    
    651      1     33     41       485.0           5000.           482.0    
    652      1     33     70       444.4           5000.           441.4    
    653      1     33     71       444.4           5000.           441.4    
    654      1     33     72       444.4           5000.           441.4    
    655      1     33     86       469.6           5000.           466.6    
    656      1     33     87       463.7           5000.           460.7    
    657      1     33     88       463.6           5000.           460.6    
    658      1     33     90       466.0           5000.           463.0    
    659      1     33     97       474.6           5000.           471.6    
    660      1     33     98       474.6           5000.           471.6    
    661      1     33     99       478.0           5000.           475.0    
    662      1     33    101       482.6           5000.           479.6    
    663      1     33    108       495.2           5000.           492.2    
    664      1     33    110       507.2           5000.           504.2    
    665      1     33    114       514.0           5000.           511.0    
    666      1     33    115       516.9           5000.           513.9    
    667      1     33    116       518.3           5000.           515.3    
    668      1     33    117       520.2           5000.           517.2    
    669      1     33    118       523.6           5000.           520.6    
    670      1     33    119       526.8           5000.           523.8    
    671      1     33    120       528.5           5000.           525.5    
    672      1     33    121       538.1           5000.           535.1    
    673      1     33    122       538.6           5000.           535.6    
    674      1     33    123       541.4           5000.           538.4    
    675      1     33    140       632.7           5000.           629.7    
    676      1     33    141       637.4           5000.           634.4    
    677      1     33    152       650.2           5000.           647.2    
    678      1     33    153       655.6           5000.           652.6    
    679      1     34     24       468.6           5000.           465.6    
    680      1     34     40       478.8           5000.           475.8    
    681      1     34     41       479.9           5000.           476.9    
    682      1     34     68       444.4           5000.           441.4    
    683      1     34     69       444.4           5000.           441.4    
    684      1     34     70       444.4           5000.           441.4    
    685      1     34     88       463.6           5000.           460.6    
    686      1     34     90       467.0           5000.           464.0    
    687      1     34    108       495.3           5000.           492.3    
    688      1     34    109       501.8           5000.           498.8    
    689      1     34    110       504.0           5000.           501.0    
    690      1     34    118       523.7           5000.           520.7    
    691      1     34    119       526.4           5000.           523.4    
    692      1     34    139       627.8           5000.           624.8    
    693      1     34    140       628.5           5000.           625.5    
    694      1     34    151       646.6           5000.           643.6    
    695      1     34    152       648.7           5000.           645.7    
    696      1     35     24       468.6           5000.           465.6    
    697      1     35     38       477.5           5000.           474.5    
    698      1     35     39       478.4           5000.           475.4    
    699      1     35     40       478.5           5000.           475.5    
    700      1     35     52       477.2           5000.           474.2    
    701      1     35     53       477.0           5000.           474.0    
    702      1     35     66       444.5           5000.           441.5    
    703      1     35     67       444.5           5000.           441.5    
    704      1     35     68       444.5           5000.           441.5    
    705      1     35     88       464.0           5000.           461.0    
    706      1     35     90       467.0           5000.           464.0    
    707      1     35    118       532.0           5000.           529.0    
    708      1     35    119       532.9           5000.           529.9    
    709      1     35    120       538.4           5000.           535.4    
    710      1     35    138       623.8           5000.           620.8    
    711      1     35    139       625.0           5000.           622.0    
    712      1     35    150       640.7           5000.           637.7    
    713      1     35    151       645.6           5000.           642.6    
    714      1     36     24       468.6           5000.           465.6    
    715      1     36     29       459.2           5000.           456.2    
    716      1     36     30       459.2           5000.           456.2    
    717      1     36     38       467.1           5000.           464.1    
    718      1     36     52       468.0           5000.           465.0    
    719      1     36     53       467.4           5000.           464.4    
    720      1     36     65       444.2           5000.           441.2    
    721      1     36     66       444.2           5000.           441.2    
    722      1     36     88       467.8           5000.           464.8    
    723      1     36     89       468.7           5000.           465.7    
    724      1     36     90       467.9           5000.           464.9    
    725      1     36    120       546.4           5000.           543.4    
    726      1     36    121       550.9           5000.           547.9    
    727      1     36    122       563.0           5000.           560.0    
    728      1     36    137       617.1           5000.           614.1    
    729      1     36    138       618.8           5000.           615.8    
    730      1     36    148       638.6           5000.           635.6    
    731      1     36    149       638.7           5000.           635.7    
    732      1     36    150       638.8           5000.           635.8    
    733      1     37     24       468.6           5000.           465.6    
    734      1     37     25       468.6           5000.           465.6    
    735      1     37     28       459.2           5000.           456.2    
    736      1     37     29       459.2           5000.           456.2    
    737      1     37     30       459.2           5000.           456.2    
    738      1     37     31       459.2           5000.           456.2    
    739      1     37     32       459.2           5000.           456.2    
    740      1     37     38       462.7           5000.           459.7    
    741      1     37     53       458.7           5000.           455.7    
    742      1     37     54       458.9           5000.           455.9    
    743      1     37     64       444.2           5000.           441.2    
    744      1     37     65       444.2           5000.           441.2    
    745      1     37     89       469.2           5000.           466.2    
    746      1     37     90       467.8           5000.           464.8    
    747      1     37    137       615.4           5000.           612.4    
    748      1     37    147       628.4           5000.           625.4    
    749      1     37    148       638.4           5000.           635.4    
    750      1     38      1       616.0           5000.           613.0    
    751      1     38      2       617.9           5000.           614.9    
    752      1     38      3       618.1           5000.           615.1    
    753      1     38      4       621.7           5000.           618.7    
    754      1     38     25       459.2           5000.           456.2    
    755      1     38     26       459.2           5000.           456.2    
    756      1     38     27       459.2           5000.           456.2    
    757      1     38     28       459.2           5000.           456.2    
    758      1     38     32       459.2           5000.           456.2    
    759      1     38     37       460.3           5000.           457.3    
    760      1     38     38       460.1           5000.           457.1    
    761      1     38     54       452.5           5000.           449.5    
    762      1     38     60       444.2           5000.           441.2    
    763      1     38     61       444.2           5000.           441.2    
    764      1     38     64       444.2           5000.           441.2    
    765      1     38     88       478.7           5000.           475.7    
    766      1     38     89       477.0           5000.           474.0    
    767      1     38    136       614.5           5000.           611.5    
    768      1     38    137       613.4           5000.           610.4    
    769      1     38    146       628.4           5000.           625.4    
    770      1     38    147       628.4           5000.           625.4    
    771      1     39      4       626.2           5000.           623.2    
    772      1     39      5       627.1           5000.           624.1    
    773      1     39     32       459.2           5000.           456.2    
    774      1     39     37       458.6           5000.           455.6    
    775      1     39     54       450.5           5000.           447.5    
    776      1     39     61       444.2           5000.           441.2    
    777      1     39     62       445.0           5000.           442.0    
    778      1     39     63       444.2           5000.           441.2    
    779      1     39     64       444.2           5000.           441.2    
    780      1     39     87       478.7           5000.           475.7    
    781      1     39     88       478.7           5000.           475.7    
    782      1     39    136       611.8           5000.           608.8    
    783      1     39    137       611.2           5000.           608.2    
    784      1     39    144       619.6           5000.           616.6    
    785      1     39    145       626.4           5000.           623.4    
    786      1     39    146       628.3           5000.           625.3    
    787      1     39    147       628.3           5000.           625.3    
    788      1     40     32       459.2           5000.           456.2    
    789      1     40     33       459.2           5000.           456.2    
    790      1     40     34       459.2           5000.           456.2    
    791      1     40     35       459.2           5000.           456.2    
    792      1     40     36       459.2           5000.           456.2    
    793      1     40     37       458.6           5000.           455.6    
    794      1     40     54       447.9           5000.           444.9    
    795      1     40     61       444.2           5000.           441.2    
    796      1     40     62       444.2           5000.           441.2    
    797      1     40     63       444.2           5000.           441.2    
    798      1     40     86       485.1           5000.           482.1    
    799      1     40     87       479.3           5000.           476.3    
    800      1     40    136       609.9           5000.           606.9    
    801      1     40    137       608.5           5000.           605.5    
    802      1     40    144       615.6           5000.           612.6    
    803      1     41     35       458.1           5000.           455.1    
    804      1     41     36       458.1           5000.           455.1    
    805      1     41     37       458.2           5000.           455.2    
    806      1     41     54       445.0           5000.           442.0    
    807      1     41     55       444.2           5000.           441.2    
    808      1     41     56       444.2           5000.           441.2    
    809      1     41     57       444.2           5000.           441.2    
    810      1     41     59       444.3           5000.           441.3    
    811      1     41     60       444.3           5000.           441.3    
    812      1     41     61       444.2           5000.           441.2    
    813      1     41     85       488.6           5000.           485.6    
    814      1     41     86       486.7           5000.           483.7    
    815      1     41    136       605.5           5000.           602.5    
    816      1     41    137       607.2           5000.           604.2    
    817      1     41    143       612.2           5000.           609.2    
    818      1     41    144       618.1           5000.           615.1    
    819      1     41    155       648.5           5000.           645.5    
    820      1     41    156       652.0           5000.           649.0    
    821      1     42     35       458.1           5000.           455.1    
    822      1     42     36       457.1           5000.           454.1    
    823      1     42     37       457.1           5000.           454.1    
    824      1     42     57       444.2           5000.           441.2    
    825      1     42     58       444.2           5000.           441.2    
    826      1     42     59       444.2           5000.           441.2    
    827      1     42     60       444.2           5000.           441.2    
    828      1     42     84       487.2           5000.           484.2    
    829      1     42     85       488.6           5000.           485.6    
    830      1     42    134       604.1           5000.           601.1    
    831      1     42    135       604.1           5000.           601.1    
    832      1     42    136       604.9           5000.           601.9    
    833      1     42    142       611.7           5000.           608.7    
    834      1     42    143       612.2           5000.           609.2    
    835      1     42    154       648.5           5000.           645.5    
    836      1     42    155       648.5           5000.           645.5    
    837      1     43     36       456.8           5000.           453.8    
    838      1     43     37       456.8           5000.           453.8    
    839      1     43     56       444.2           5000.           441.2    
    840      1     43     57       444.2           5000.           441.2    
    841      1     43     81       480.1           5000.           477.1    
    842      1     43     82       480.1           5000.           477.1    
    843      1     43     83       480.4           5000.           477.4    
    844      1     43     84       480.4           5000.           477.4    
    845      1     43    135       602.6           5000.           599.6    
    846      1     43    141       608.2           5000.           605.2    
    847      1     43    142       608.2           5000.           605.2    
    848      1     43    154       640.6           5000.           637.6    
    849      1     44     37       456.8           5000.           453.8    
    850      1     44     38       456.8           5000.           453.8    
    851      1     44     56       444.2           5000.           441.2    
    852      1     44     79       474.8           5000.           471.8    
    853      1     44     80       474.8           5000.           471.8    
    854      1     44     81       475.6           5000.           472.6    
    855      1     44     82       481.9           5000.           478.9    
    856      1     44    102       523.7           5000.           520.7    
    857      1     44    134       598.0           5000.           595.0    
    858      1     44    135       602.5           5000.           599.5    
    859      1     44    140       606.2           5000.           603.2    
    860      1     44    141       606.2           5000.           603.2    
    861      1     44    144       618.5           5000.           615.5    
    862      1     44    145       626.5           5000.           623.5    
    863      1     44    154       638.4           5000.           635.4    
    864      1     45     38       456.8           5000.           453.8    
    865      1     45     39       454.4           5000.           451.4    
    866      1     45     55       444.2           5000.           441.2    
    867      1     45     56       444.2           5000.           441.2    
    868      1     45     77       471.9           5000.           468.9    
    869      1     45     78       472.1           5000.           469.1    
    870      1     45     79       474.6           5000.           471.6    
    871      1     45     82       482.1           5000.           479.1    
    872      1     45     83       480.4           5000.           477.4    
    873      1     45     84       483.2           5000.           480.2    
    874      1     45    101       513.7           5000.           510.7    
    875      1     45    102       514.4           5000.           511.4    
    876      1     45    103       523.6           5000.           520.6    
    877      1     45    104       523.7           5000.           520.7    
    878      1     45    105       523.7           5000.           520.7    
    879      1     45    106       523.7           5000.           520.7    
    880      1     45    107       528.5           5000.           525.5    
    881      1     45    108       529.4           5000.           526.4    
    882      1     45    109       533.4           5000.           530.4    
    883      1     45    110       538.4           5000.           535.4    
    884      1     45    111       544.6           5000.           541.6    
    885      1     45    112       548.1           5000.           545.1    
    886      1     45    133       597.1           5000.           594.1    
    887      1     45    134       597.2           5000.           594.2    
    888      1     45    140       604.6           5000.           601.6    
    889      1     45    141       598.8           5000.           595.8    
    890      1     45    143       618.2           5000.           615.2    
    891      1     45    144       618.5           5000.           615.5    
    892      1     45    154       634.1           5000.           631.1    
    893      1     45    156       647.8           5000.           644.8    
    894      1     46     39       453.8           5000.           450.8    
    895      1     46     42       452.0           5000.           449.0    
    896      1     46     43       451.0           5000.           448.0    
    897      1     46     55       444.2           5000.           441.2    
    898      1     46     56       444.2           5000.           441.2    
    899      1     46     57       444.2           5000.           441.2    
    900      1     46     76       469.7           5000.           466.7    
    901      1     46     77       470.2           5000.           467.2    
    902      1     46     84       480.6           5000.           477.6    
    903      1     46     85       486.5           5000.           483.5    
    904      1     46    100       511.6           5000.           508.6    
    905      1     46    101       511.7           5000.           508.7    
    906      1     46    106       523.7           5000.           520.7    
    907      1     46    107       525.4           5000.           522.4    
    908      1     46    133       596.5           5000.           593.5    
    909      1     46    134       596.1           5000.           593.1    
    910      1     46    140       598.7           5000.           595.7    
    911      1     46    141       598.8           5000.           595.8    
    912      1     46    142       607.8           5000.           604.8    
    913      1     46    143       608.7           5000.           605.7    
    914      1     46    153       627.6           5000.           624.6    
    915      1     46    154       628.5           5000.           625.5    
    916      1     46    156       647.8           5000.           644.8    
    917      1     47     39       453.8           5000.           450.8    
    918      1     47     40       452.0           5000.           449.0    
    919      1     47     41       451.0           5000.           448.0    
    920      1     47     42       451.0           5000.           448.0    
    921      1     47     43       451.0           5000.           448.0    
    922      1     47     45       446.0           5000.           443.0    
    923      1     47     46       445.4           5000.           442.4    
    924      1     47     55       444.2           5000.           441.2    
    925      1     47     56       444.2           5000.           441.2    
    926      1     47     75       469.0           5000.           466.0    
    927      1     47     76       469.0           5000.           466.0    
    928      1     47     85       486.7           5000.           483.7    
    929      1     47     86       486.9           5000.           483.9    
    930      1     47     87       487.1           5000.           484.1    
    931      1     47     88       488.1           5000.           485.1    
    932      1     47     99       509.0           5000.           506.0    
    933      1     47    100       510.4           5000.           507.4    
    934      1     47    134       592.5           5000.           589.5    
    935      1     47    139       596.6           5000.           593.6    
    936      1     47    140       597.1           5000.           594.1    
    937      1     47    141       598.7           5000.           595.7    
    938      1     47    142       603.8           5000.           600.8    
    939      1     47    151       625.2           5000.           622.2    
    940      1     47    152       627.5           5000.           624.5    
    941      1     47    153       627.6           5000.           624.6    
    942      1     47    154       633.7           5000.           630.7    
    943      1     47    155       634.1           5000.           631.1    
    944      1     47    156       637.8           5000.           634.8    
    945      1     48     42       450.6           5000.           447.6    
    946      1     48     43       447.1           5000.           444.1    
    947      1     48     44       447.1           5000.           444.1    
[...]
        450.5       448.9       448.0       447.9       448.2       448.7       449.3       450.0       451.0       452.2    
        453.9       455.3       456.4       457.2       457.9       458.5       458.9       459.1       459.4       459.6    
        459.8       460.0       460.2       460.3       460.3       460.1       461.6       463.2       464.5       465.6    
        466.6       467.6       468.7       470.1       471.8       473.7       475.9       477.9       479.8       481.6    
        483.4       485.0       486.5       488.0       489.4       490.8       492.2       493.5       494.8       496.0    
        497.1       498.3       499.4       500.7       502.0       502.8       503.5       504.1       504.6       504.9    
        505.0       505.0       504.8       504.5       504.0       503.4       502.7       502.0       501.9       504.7    
        507.9       511.0       514.0       517.0       519.8       522.5       525.1       527.6       529.9       532.2    
        534.4       536.5       538.5       540.4       542.2       543.9       545.6       547.2       548.7       550.1    
        551.4       552.7       553.9       555.0       556.0       556.9       557.8       558.5       559.1       559.6    
        560.1       560.5       561.0       561.4       561.9       562.4       562.8       563.3       563.7       564.1    
        564.3       564.4       564.4       564.1       564.7       566.1       567.3       568.5       569.5       570.6    
        571.6       572.6       573.6       574.6       575.6       576.4       577.1       577.6       578.0       578.3    
        578.4       578.2       577.8       577.3       576.7       576.3       576.5       577.7       579.5       581.6    
        583.7       585.7       587.4       589.0       590.3       590.9    
  93    451.8       451.6       451.3       450.7       449.9       450.8       451.3       451.4       451.2       450.7    
        449.8       448.7       448.7       449.5       450.1       450.7       451.3       452.0       452.7       453.3    
        455.0       456.5       457.7       458.7       459.5       460.1       460.6       461.0       461.3       461.6    
        461.9       462.2       462.5       462.7       462.9       462.8       463.9       465.8       467.2       468.4    
        469.6       470.7       471.9       473.4       474.9       476.7       478.5       480.2       482.0       484.0    
        485.8       487.4       489.0       490.4       491.8       493.1       494.4       495.7       496.9       498.1    
        499.2       500.3       501.5       502.7       503.8       504.6       505.1       505.6       505.9       506.1    
        506.2       506.1       505.9       505.5       504.9       504.2       503.3       502.0       502.7       505.9    
        509.1       512.2       515.2       518.2       521.0       523.7       526.3       528.8       531.2       533.5    
        535.6       537.7       539.8       541.7       543.5       545.3       546.9       548.5       550.0       551.5    
        552.8       554.1       555.3       556.4       557.4       558.3       559.2       559.9       560.6       561.2    
        561.7       562.2       562.7       563.1       563.6       564.1       564.5       564.9       565.3       565.5    
        565.7       565.8       565.8       565.7       565.8       567.1       568.3       569.5       570.6       571.7    
        572.8       573.8       574.8       575.8       576.8       577.6       578.3       578.9       579.3       579.6    
        579.8       579.8       579.7       579.5       579.3       579.3       579.8       580.7       582.1       583.7    
        585.4       587.1       588.6       590.0       591.2       591.9    
  94    450.6       450.5       450.1       449.6       448.7       449.6       450.0       450.1       450.1       449.9    
        449.2       449.2       450.2       451.0       451.7       452.4       453.1       453.8       454.4       454.8    
        455.9       457.6       459.0       460.0       460.9       461.6       462.2       462.7       463.1       463.5    
        463.9       464.2       464.6       465.0       465.4       465.9       466.9       468.3       469.7       471.1    
        472.3       473.5       474.8       476.1       477.6       479.2       480.9       482.6       484.4       486.4    
        488.1       489.7       491.2       492.7       494.0       495.2       496.5       497.7       498.8       500.0    
        501.1       502.2       503.3       504.4       505.6       506.2       506.6       507.0       507.2       507.3    
        507.3       507.1       506.9       506.4       505.8       505.0       503.9       502.5       503.5       506.9    
        510.2       513.3       516.3       519.2       522.0       524.8       527.4       529.9       532.2       534.5    
        536.8       538.9       540.9       542.8       544.7       546.4       548.1       549.7       551.2       552.6    
        554.0       555.3       556.5       557.6       558.6       559.5       560.4       561.2       561.9       562.5    
        563.1       563.6       564.1       564.6       565.1       565.5       565.9       566.3       566.6       566.8    
        567.0       567.1       567.1       566.9       566.8       567.9       569.1       570.2       571.4       572.6    
        573.7       574.8       575.9       576.9       577.8       578.6       579.3       580.0       580.4       580.8    
        581.1       581.2       581.3       581.4       581.5       581.7       582.2       583.1       584.2       585.5    
        587.0       588.4       589.7       590.9       591.9       592.6    
  95    449.4       449.2       449.0       448.5       447.8       448.5       448.9       448.7       449.0       449.2    
        449.6       450.6       451.5       452.4       453.2       453.9       454.6       455.3       456.0       456.6    
        457.2       458.9       460.3       461.4       462.2       463.0       463.6       464.1       464.6       465.1    
        465.5       466.0       466.5       467.0       467.6       468.4       469.4       470.6       472.2       473.6    
        474.8       476.0       477.2       478.6       480.0       481.5       483.1       484.7       486.5       488.4    
        490.2       491.8       493.3       494.8       495.9       497.1       498.3       499.4       500.5       501.6    
        502.7       503.7       504.8       505.9       507.0       507.7       508.0       508.2       508.3       508.4    
        508.3       508.1       507.7       507.2       506.6       505.8       504.7       503.3       504.4       507.9    
        511.1       514.2       517.2       520.1       523.0       525.7       528.3       530.8       533.2       535.5    
        537.7       539.8       541.8       543.8       545.6       547.4       549.1       550.7       552.2       553.7    
        555.0       556.3       557.5       558.6       559.6       560.6       561.5       562.3       563.0       563.7    
        564.3       564.8       565.4       565.9       566.3       566.7       567.1       567.5       567.8       568.0    
        568.1       568.2       568.1       568.0       567.6       568.6       569.6       570.7       572.0       573.2    
        574.4       575.6       576.7       577.7       578.7       579.5       580.3       580.9       581.5       581.9    
        582.3       582.5       582.7       583.0       583.2       583.6       584.2       584.9       585.9       587.0    
        588.2       589.4       590.6       591.7       592.7       593.2    
  96    448.0       447.9       447.7       447.4       447.0       447.4       448.0       448.5       449.6       450.3    
        451.0       451.9       452.7       453.6       454.4       455.2       455.9       456.7       457.4       458.1    
        458.8       460.3       461.6       462.6       463.5       464.2       464.8       465.4       465.9       466.5    
        467.0       467.5       468.1       468.7       469.4       470.3       471.3       472.5       474.0       475.5    
        476.9       478.2       479.3       480.6       482.0       483.4       484.9       486.4       488.1       489.8    
        491.5       493.1       494.7       496.4       497.6       498.8       499.9       501.0       502.0       503.0    
        504.0       505.0       506.0       507.0       508.0       508.8       509.1       509.2       509.3       509.3    
        509.1       508.9       508.5       508.0       507.4       506.5       505.5       504.2       505.9       508.8    
        511.9       515.0       518.0       520.9       523.7       526.4       529.0       531.5       534.0       536.3    
        538.5       540.6       542.7       544.6       546.5       548.2       549.9       551.5       553.1       554.5    
        555.9       557.2       558.4       559.5       560.5       561.5       562.4       563.2       564.0       564.6    
        565.3       565.9       566.4       566.9       567.3       567.8       568.1       568.5       568.7       569.0    
        569.1       569.2       569.1       568.9       568.4       568.9       569.6       570.9       572.3       573.7    
        575.0       576.2       577.4       578.4       579.4       580.3       581.1       581.7       582.3       582.8    
        583.2       583.6       583.9       584.2       584.6       585.0       585.6       586.3       587.2       588.2    
        589.2       590.3       591.4       592.4       593.1       593.3    
  97    446.4       446.3       446.5       446.2       446.7       447.8       448.7       449.5       450.4       451.2    
        452.0       452.9       453.7       454.5       455.4       456.2       457.0       457.8       458.6       459.5    
        460.4       461.8       462.9       463.8       464.6       465.3       465.9       466.5       467.0       467.6    
        468.1       468.7       469.3       470.0       470.8       471.7       472.8       474.0       475.3       476.8    
        478.3       479.8       481.0       482.3       483.7       485.0       486.4       487.9       489.4       491.0    
        492.6       494.2       495.8       497.5       499.0       500.3       501.3       502.4       503.3       504.2    
        505.2       506.1       507.0       508.0       508.9       509.8       510.0       510.1       510.1       510.0    
        509.8       509.6       509.2       508.7       508.0       507.3       506.3       505.0       505.8       509.3    
        512.5       515.6       518.6       521.5       524.3       527.0       529.6       532.2       534.6       536.9    
        539.1       541.3       543.3       545.2       547.1       548.9       550.6       552.2       553.7       555.2    
        556.5       557.8       559.0       560.2       561.2       562.2       563.1       563.9       564.7       565.4    
        566.1       566.7       567.2       567.7       568.2       568.6       568.9       569.3       569.5       569.7    
        569.9       570.0       570.0       569.9       569.8       570.0       570.1       570.9       572.3       573.9    
        575.3       576.7       577.9       579.0       580.0       580.9       581.7       582.4       583.0       583.6    
        584.1       584.5       584.9       585.3       585.7       586.1       586.7       587.3       588.1       589.0    
        590.0       591.0       592.0       592.8       593.2       593.5    
  98    445.6       445.2       445.3       445.7       446.9       448.1       449.1       450.1       451.0       451.9    
        452.7       453.6       454.4       455.3       456.1       457.0       457.8       458.6       459.5       460.5    
        461.5       462.9       464.0       465.0       465.6       466.2       466.8       467.3       467.8       468.4    
        469.0       469.6       470.3       471.1       471.9       472.8       473.9       475.1       476.4       477.8    
        479.3       480.9       482.4       483.8       485.2       486.3       487.6       488.9       490.4       491.9    
        493.4       495.0       496.6       498.2       499.7       501.2       502.5       503.6       504.3       505.2    
        506.0       506.9       507.8       508.6       509.5       510.4       510.9       510.9       510.8       510.6    
        510.4       510.1       509.7       509.2       508.6       507.9       507.2       506.5       506.4       509.8    
        513.0       516.1       519.1       522.0       524.8       527.5       530.1       532.6       535.0       537.4    
        539.6       541.7       543.8       545.7       547.6       549.4       551.1       552.7       554.2       555.7    
        557.1       558.4       559.6       560.7       561.8       562.7       563.7       564.5       565.3       566.0    
        566.6       567.2       567.8       568.3       568.8       569.2       569.5       569.9       570.1       570.4    
        570.5       570.6       570.7       570.7       570.7       570.9       571.0       571.1       572.1       574.0    
        575.6       577.0       578.2       579.4       580.4       581.3       582.2       582.9       583.6       584.1    
        584.7       585.1       585.6       586.0       586.4       586.9       587.4       587.9       588.6       589.4    
        590.4       591.4       592.3       592.9       593.3       593.6    
  99    444.8       444.8       445.0       445.5       447.0       448.3       449.4       450.4       451.4       452.3    
        453.2       454.1       454.9       455.8       456.6       457.5       458.3       459.2       460.1       461.1    
        462.2       463.3       464.4       465.6       466.4       467.0       467.4       467.9       468.4       469.0    
        469.6       470.2       470.9       471.7       472.6       473.5       474.6       475.8       477.1       478.4    
        479.9       481.4       482.9       484.4       486.0       487.3       488.4       489.7       491.0       492.5    
        494.0       495.5       497.1       498.6       500.1       501.6       502.9       504.3       505.1       505.8    
        506.6       507.4       508.3       509.1       509.9       510.7       511.3       511.5       511.3       511.1    
        510.8       510.5       510.0       509.6       509.0       508.4       507.8       507.3       506.9       510.1    
        513.3       516.4       519.4       522.3       525.1       527.8       530.4       532.9       535.4       537.7    
        539.9       542.0       544.1       546.1       547.9       549.7       551.4       553.0       554.6       556.0    
        557.4       558.7       559.9       561.0       562.1       563.1       564.0       564.9       565.6       566.4    
        567.0       567.6       568.2       568.7       569.2       569.6       570.0       570.3       570.5       570.8    
        570.9       571.1       571.1       571.2       571.3       571.4       571.6       571.8       572.2       574.1    
        575.7       577.2       578.5       579.6       580.7       581.6       582.5       583.2       583.9       584.5    
        585.1       585.6       586.0       586.5       586.9       587.3       587.8       588.2       588.8       589.4    
        590.5       591.4       592.3       593.0       593.4       593.6    
 100    445.1       445.2       445.3       445.6       447.1       448.4       449.6       450.6       451.6       452.5    
        453.4       454.3       455.2       456.0       456.9       457.7       458.6       459.5       460.4       461.4    
        462.5       463.6       464.6       465.6       466.4       467.1       467.6       468.1       468.7       469.3    
        469.9       470.5       471.3       472.1       472.9       473.9       475.0       476.1       477.4       478.8    
        480.2       481.7       483.2       484.7       486.2       487.7       488.8       490.0       491.4       492.8    
        494.3       495.8       497.3       498.8       500.3       501.8       503.2       504.6       505.6       506.2    
        506.9       507.7       508.5       509.3       510.1       510.8       511.4       511.8       511.5       511.3    
        511.0       510.6       510.2       509.8       509.2       508.7       508.1       507.6       507.1       510.3    
        513.5       516.6       519.6       522.5       525.3       528.0       530.6       533.1       535.5       537.8    
        540.1       542.2       544.3       546.2       548.1       549.9       551.6       553.2       554.7       556.2    
        557.6       558.9       560.1       561.2       562.3       563.3       564.2       565.0       565.8       566.6    
        567.2       567.8       568.4       568.9       569.4       569.8       570.2       570.5       570.7       571.0    
        571.1       571.3       571.4       571.5       571.6       571.7       571.9       572.1       572.4       574.2    
        575.8       577.3       578.6       579.8       580.8       581.8       582.7       583.4       584.1       584.7    
        585.3       585.8       586.2       586.7       587.1       587.5       587.9       588.1       588.7       589.8    
        590.7       591.6       592.4       593.0       593.5       593.7    

 HEAD WILL BE SAVED ON UNIT   51 AT END OF TIME STEP    1, STRESS PERIOD    1
1
  VOLUMETRIC BUDGET FOR ENTIRE MODEL AT END OF TIME STEP    1, STRESS PERIOD   1
  ------------------------------------------------------------------------------

     CUMULATIVE VOLUMES      L**3       RATES FOR THIS TIME STEP      L**3/T
     ------------------                 ------------------------

           IN:                                      IN:
           ---                                      ---
             STORAGE =           0.0000               STORAGE =           0.0000
       CONSTANT HEAD =           0.0000         CONSTANT HEAD =           0.0000
               WELLS =           0.0000                 WELLS =           0.0000
       RIVER LEAKAGE =     7251319.0000         RIVER LEAKAGE =     7251319.0000
            RECHARGE =    97500000.0000              RECHARGE =    97500000.0000

            TOTAL IN =   104751320.0000              TOTAL IN =   104751320.0000

          OUT:                                     OUT:
          ----                                     ----
             STORAGE =           0.0000               STORAGE =           0.0000
       CONSTANT HEAD =           0.0000         CONSTANT HEAD =           0.0000
               WELLS =      133000.0000                 WELLS =      133000.0000
       RIVER LEAKAGE =   104618320.0000         RIVER LEAKAGE =   104618320.0000
            RECHARGE =           0.0000              RECHARGE =           0.0000

           TOTAL OUT =   104751320.0000             TOTAL OUT =   104751320.0000

            IN - OUT =           0.0000              IN - OUT =           0.0000

 PERCENT DISCREPANCY =           0.00     PERCENT DISCREPANCY =           0.00






         TIME SUMMARY AT END OF TIME STEP    1 IN STRESS PERIOD    1
                    SECONDS     MINUTES      HOURS       DAYS        YEARS
                    -----------------------------------------------------------
   TIME STEP LENGTH  86400.      1440.0      24.000      1.0000     2.73785E-03
 STRESS PERIOD TIME  86400.      1440.0      24.000      1.0000     2.73785E-03
         TOTAL TIME  86400.      1440.0      24.000      1.0000     2.73785E-03
1

 Run end date and time (yyyy/mm/dd hh:mm:ss): 2020/09/14 15:42:34
 Elapsed run time:  0.126 Seconds

