                                  MODFLOW-2005     
      U.S. GEOLOGICAL SURVEY MODULAR FINITE-DIFFERENCE GROUND-WATER FLOW MODEL
                            VERSION 1.12.00 2/3/2017

 LIST FILE: my_model.list
                         UNIT    2

 OPENING my_model.dis
 FILE TYPE:DIS   UNIT   11   STATUS:OLD    
 FORMAT:FORMATTED              ACCESS:SEQUENTIAL          

 OPENING my_model.bas
 FILE TYPE:BAS6   UNIT   13   STATUS:OLD    
 FORMAT:FORMATTED              ACCESS:SEQUENTIAL          

 OPENING my_model.lpf
 FILE TYPE:LPF   UNIT   15   STATUS:OLD    
 FORMAT:FORMATTED              ACCESS:SEQUENTIAL          

 OPENING my_model.rch
 FILE TYPE:RCH   UNIT   19   STATUS:OLD    
 FORMAT:FORMATTED              ACCESS:SEQUENTIAL          

 OPENING my_model.riv
 FILE TYPE:RIV   UNIT   18   STATUS:OLD    
 FORMAT:FORMATTED              ACCESS:SEQUENTIAL          

 OPENING my_model.oc
 FILE TYPE:OC   UNIT   14   STATUS:OLD    
 FORMAT:FORMATTED              ACCESS:SEQUENTIAL          

 OPENING my_model.pcg
 FILE TYPE:PCG   UNIT   27   STATUS:OLD    
 FORMAT:FORMATTED              ACCESS:SEQUENTIAL          

 OPENING my_model.cbc
 FILE TYPE:DATA(BINARY)   UNIT    1   STATUS:REPLACE
 FORMAT:BINARY                 ACCESS:SEQUENTIAL          

 OPENING my_model.hds
 FILE TYPE:DATA(BINARY)   UNIT   51   STATUS:REPLACE
 FORMAT:BINARY                 ACCESS:SEQUENTIAL          

 BAS -- BASIC PACKAGE, VERSION 7, 5/2/2005 INPUT READ FROM UNIT   13
 
 MODFLOW was compiled using mixed precision
 Precision of REAL variables:           6
 Precision of DOUBLE PRECISION variables:          15

 DISCRETIZATION INPUT DATA READ FROM UNIT   11
 # DIS package for  MODFLOW-2005, generated by Flopy.
    1 LAYERS       120 ROWS        60 COLUMNS
    1 STRESS PERIOD(S) IN SIMULATION
 MODEL TIME UNIT IS DAYS
 MODEL LENGTH UNIT IS FEET
  Confining bed flag for each layer:
   0

                     DELR =   1000.00    

                     DELC =   1000.00    

 TOP ELEVATION OF LAYER 1 =   0.00000    

   MODEL LAYER BOTTOM EL. =  -50.0000     FOR LAYER   1


 STRESS PERIOD     LENGTH       TIME STEPS     MULTIPLIER FOR DELT    SS FLAG
 ----------------------------------------------------------------------------
        1         1.000000          1                    1.000         SS

 STEADY-STATE SIMULATION



 
 # BAS6 package for  MODFLOW-2005, generated by Flopy.                           
 THE FREE FORMAT OPTION HAS BEEN SELECTED



                     BOUNDARY ARRAY FOR LAYER   1
 READING ON UNIT   13 WITH FORMAT: (60I10)             

 AQUIFER HEAD WILL BE SET TO  -999.99     AT ALL NO-FLOW NODES (IBOUND=0).



                       INITIAL HEAD FOR LAYER   1
 READING ON UNIT   13 WITH FORMAT: (60E15.6)           
 # OC package for  MODFLOW-2005, generated by Flopy.

 OUTPUT CONTROL IS SPECIFIED ONLY AT TIME STEPS FOR WHICH OUTPUT IS DESIRED
 COMPACT CELL-BY-CELL BUDGET FILES WILL BE WRITTEN
 AUXILIARY DATA WILL BE SAVED IN CELL-BY-CELL BUDGET FILES
 HEAD PRINT FORMAT CODE IS   0    DRAWDOWN PRINT FORMAT CODE IS   0
 HEADS WILL BE SAVED ON UNIT   51    DRAWDOWNS WILL BE SAVED ON UNIT    0

 LPF -- LAYER-PROPERTY FLOW PACKAGE, VERSION 7, 5/2/2005
         INPUT READ FROM UNIT   15
 # LPF package for  MODFLOW-2005, generated by Flopy.
 CELL-BY-CELL FLOWS WILL BE SAVED ON UNIT    1
 HEAD AT CELLS THAT CONVERT TO DRY= -1.00000E+30
 No named parameters

   LAYER FLAGS:
 LAYER       LAYTYP        LAYAVG         CHANI        LAYVKA        LAYWET
 ---------------------------------------------------------------------------
    1             1             0     1.000E+00             0             0

   INTERPRETATION OF LAYER FLAGS:
                        INTERBLOCK     HORIZONTAL    DATA IN
         LAYER TYPE   TRANSMISSIVITY   ANISOTROPY   ARRAY VKA   WETTABILITY
 LAYER      (LAYTYP)      (LAYAVG)       (CHANI)      (LAYVKA)      (LAYWET)
 ---------------------------------------------------------------------------
    1   CONVERTIBLE      HARMONIC     1.000E+00    VERTICAL K  NON-WETTABLE

 WETTING CAPABILITY IS NOT ACTIVE IN ANY LAYER



              HYD. COND. ALONG ROWS FOR LAYER   1
 READING ON UNIT   15 WITH FORMAT: (60E15.6)           



                VERTICAL HYD. COND. FOR LAYER   1
 READING ON UNIT   15 WITH FORMAT: (60E15.6)           

 RIV -- RIVER PACKAGE, VERSION 7, 5/2/2005 INPUT READ FROM UNIT   18
 # RIV package for  MODFLOW-2005, generated by Flopy.
 No named parameters
 MAXIMUM OF   1202 ACTIVE RIVER REACHES AT ONE TIME


     0 River parameters

 RCH -- RECHARGE PACKAGE, VERSION 7, 5/2/2005 INPUT READ FROM UNIT   19
 # RCH package for  MODFLOW-2005, generated by Flopy.
 No named parameters
 OPTION 3 -- RECHARGE TO HIGHEST ACTIVE NODE IN EACH VERTICAL COLUMN


     0 Recharge parameters

 PCG -- CONJUGATE-GRADIENT SOLUTION PACKAGE, VERSION 7, 5/2/2005
 # PCG package for  MODFLOW-2005, generated by Flopy.
 MAXIMUM OF     50 CALLS OF SOLUTION ROUTINE
 MAXIMUM OF     30 INTERNAL ITERATIONS PER CALL TO SOLUTION ROUTINE
 MATRIX PRECONDITIONING TYPE :    1



                                    SOLUTION BY THE CONJUGATE-GRADIENT METHOD
                                   -------------------------------------------
                    MAXIMUM NUMBER OF CALLS TO PCG ROUTINE =       50
                        MAXIMUM ITERATIONS PER CALL TO PCG =       30
                               MATRIX PRECONDITIONING TYPE =        1
        RELAXATION FACTOR (ONLY USED WITH PRECOND. TYPE 1) =    0.10000E+01
 PARAMETER OF POLYNOMIAL PRECOND. = 2 (2) OR IS CALCULATED :        0
                         HEAD CHANGE CRITERION FOR CLOSURE =    0.10000E-04
                     RESIDUAL CHANGE CRITERION FOR CLOSURE =    0.10000E-04
            PCG HEAD AND RESIDUAL CHANGE PRINTOUT INTERVAL =      999
     PRINTING FROM SOLVER IS LIMITED(1) OR SUPPRESSED (>1) =        3
                            STEADY-STATE DAMPING PARAMETER =    0.10000E+01
                               TRANSIENT DAMPING PARAMETER =    0.10000E+01
1
                            STRESS PERIOD NO.    1, LENGTH =   1.000000    
                            -----------------------------------------------

                              NUMBER OF TIME STEPS =     1

                               MULTIPLIER FOR DELT =     1.000

                            INITIAL TIME STEP SIZE =   1.000000    

 REACH NO.  LAYER   ROW   COL     STAGE      CONDUCTANCE     BOTTOM EL.         
 -------------------------------------------------------------------------------
      1      1      1     34       640.9           5000.           637.9    
      2      1      1     49       645.3           5000.           642.3    
      3      1      1     50       645.3           5000.           642.3    
      4      1      1     50       648.4           5000.           645.4    
      5      1      2     34       640.0           5000.           637.0    
      6      1      2     49       645.3           5000.           642.3    
      7      1      2     33       639.3           5000.           636.3    
      8      1      2     34       639.5           5000.           636.5    
      9      1      2     34       652.9           5000.           649.9    
     10      1      2     35       667.7           5000.           664.7    
     11      1      2     49       645.3           5000.           642.3    
     12      1      3     33       638.5           5000.           635.5    
     13      1      3     34       653.4           5000.           650.4    
     14      1      3     35       658.2           5000.           655.2    
     15      1      3     35       662.6           5000.           659.6    
     16      1      3     49       645.1           5000.           642.1    
     17      1      4     31       647.4           5000.           644.4    
     18      1      4     32       638.1           5000.           635.1    
     19      1      4     33       638.5           5000.           635.5    
     20      1      4     49       638.3           5000.           635.3    
     21      1      4     50       646.6           5000.           643.6    
     22      1      4     31       647.2           5000.           644.2    
     23      1      4     32       637.8           5000.           634.8    
     24      1      4     49       638.3           5000.           635.3    
     25      1      4     50       646.6           5000.           643.6    
     26      1      4     50       646.5           5000.           643.5    
     27      1      5     32       636.4           5000.           633.4    
     28      1      5     49       638.3           5000.           635.3    
     29      1      5     50       646.8           5000.           643.8    
     30      1      5     32       634.7           5000.           631.7    
     31      1      5     49       638.2           5000.           635.2    
     32      1      5     50       638.9           5000.           635.9    
     33      1      6     30       641.9           5000.           638.9    
     34      1      6     30       642.2           5000.           639.2    
     35      1      6     32       634.5           5000.           631.5    
     36      1      6     44       635.2           5000.           632.2    
     37      1      6     44       644.1           5000.           641.1    
     38      1      6     49       638.2           5000.           635.2    
     39      1      6     49       638.2           5000.           635.2    
     40      1      7     30       638.1           5000.           635.1    
     41      1      7     32       632.8           5000.           629.8    
     42      1      7     32       633.7           5000.           630.7    
     43      1      7     44       635.2           5000.           632.2    
     44      1      7     49       638.2           5000.           635.2    
     45      1      7     30       632.6           5000.           629.6    
     46      1      7     31       630.9           5000.           627.9    
     47      1      7     32       631.3           5000.           628.3    
     48      1      7     37       631.7           5000.           628.7    
     49      1      7     37       631.7           5000.           628.7    
     50      1      7     38       631.7           5000.           628.7    
     51      1      7     44       635.2           5000.           632.2    
     52      1      7     48       638.2           5000.           635.2    
     53      1      7     49       638.2           5000.           635.2    
     54      1      8     30       628.5           5000.           625.5    
     55      1      8     30       628.7           5000.           625.7    
     56      1      8     31       630.1           5000.           627.1    
     57      1      8     36       631.7           5000.           628.7    
     58      1      8     37       631.7           5000.           628.7    
     59      1      8     37       631.7           5000.           628.7    
     60      1      8     38       631.7           5000.           628.7    
     61      1      8     39       631.7           5000.           628.7    
     62      1      8     39       631.7           5000.           628.7    
     63      1      8     40       632.5           5000.           629.5    
     64      1      8     41       631.7           5000.           628.7    
     65      1      8     42       631.7           5000.           628.7    
     66      1      8     42       631.7           5000.           628.7    
     67      1      8     43       631.7           5000.           628.7    
     68      1      8     44       631.7           5000.           628.7    
     69      1      8     44       631.7           5000.           628.7    
     70      1      8     45       638.4           5000.           635.4    
     71      1      8     45       638.2           5000.           635.2    
     72      1      8     46       638.2           5000.           635.2    
     73      1      8     47       638.2           5000.           635.2    
     74      1      8     47       638.2           5000.           635.2    
     75      1      8     48       638.2           5000.           635.2    
     76      1      9     29       627.0           5000.           624.0    
     77      1      9     30       628.0           5000.           625.0    
     78      1      9     34       630.9           5000.           627.9    
     79      1      9     34       630.9           5000.           627.9    
     80      1      9     35       631.7           5000.           628.7    
     81      1      9     35       631.7           5000.           628.7    
     82      1      9     36       631.7           5000.           628.7    
     83      1      9     38       631.7           5000.           628.7    
     84      1      9     39       631.7           5000.           628.7    
     85      1      9     39       631.7           5000.           628.7    
     86      1      9     40       631.7           5000.           628.7    
     87      1      9     40       631.7           5000.           628.7    
     88      1      9     44       634.8           5000.           631.8    
     89      1      9     45       638.2           5000.           635.2    
     90      1      9     45       638.2           5000.           635.2    
     91      1      9     46       638.2           5000.           635.2    
     92      1      9     29       625.7           5000.           622.7    
     93      1      9     29       626.7           5000.           623.7    
     94      1      9     31       626.8           5000.           623.8    
     95      1      9     32       627.7           5000.           624.7    
     96      1      9     34       630.7           5000.           627.7    
     97      1      9     35       631.7           5000.           628.7    
     98      1      9     35       631.7           5000.           628.7    
     99      1      9     39       631.7           5000.           628.7    
    100      1      9     40       631.7           5000.           628.7    
    101      1     10     29       624.5           5000.           621.5    
    102      1     10     30       625.6           5000.           622.6    
    103      1     10     31       626.1           5000.           623.1    
    104      1     10     32       627.4           5000.           624.4    
    105      1     10     32       628.3           5000.           625.3    
    106      1     10     33       629.3           5000.           626.3    
    107      1     10     34       630.6           5000.           627.6    
    108      1     10     28       622.3           5000.           619.3    
    109      1     10     29       624.0           5000.           621.0    
    110      1     10     29       623.4           5000.           620.4    
    111      1     10     30       624.1           5000.           621.1    
    112      1     10     30       625.4           5000.           622.4    
    113      1     11     24       632.7           5000.           629.7    
    114      1     11     28       623.1           5000.           620.1    
    115      1     11     29       623.2           5000.           620.2    
    116      1     11     30       623.8           5000.           620.8    
    117      1     12     24       631.4           5000.           628.4    
    118      1     12     25       622.5           5000.           619.5    
    119      1     12     26       622.5           5000.           619.5    
    120      1     12     28       622.2           5000.           619.2    
    121      1     12     29       622.4           5000.           619.4    
    122      1     12     29       622.5           5000.           619.5    
    123      1     12     24       631.0           5000.           628.0    
    124      1     12     24       629.0           5000.           626.0    
    125      1     12     25       627.4           5000.           624.4    
    126      1     12     25       627.6           5000.           624.6    
    127      1     12     26       619.0           5000.           616.0    
    128      1     12     27       619.9           5000.           616.9    
    129      1     12     27       621.0           5000.           618.0    
    130      1     12     28       621.2           5000.           618.2    
    131      1     12     29       621.8           5000.           618.8    
    132      1     13     25       618.2           5000.           615.2    
    133      1     13     26       619.2           5000.           616.2    
    134      1     14     25       617.8           5000.           614.8    
    135      1     14     25       618.2           5000.           615.2    
    136      1     14     25       617.5           5000.           614.5    
    137      1     15     24       616.7           5000.           613.7    
    138      1     15     25       617.6           5000.           614.6    
    139      1     15     24       616.0           5000.           613.0    
    140      1     16     19       636.6           5000.           633.6    
    141      1     16     20       633.3           5000.           630.3    
    142      1     16     20       627.8           5000.           624.8    
    143      1     16     21       623.5           5000.           620.5    
    144      1     16     22       620.1           5000.           617.1    
    145      1     16     24       615.3           5000.           612.3    
    146      1     16     24       616.1           5000.           613.1    
    147      1     17     19       636.5           5000.           633.5    
    148      1     17     19       634.2           5000.           631.2    
    149      1     17     20       633.3           5000.           630.3    
    150      1     17     22       613.6           5000.           610.6    
    151      1     17     22       613.7           5000.           610.7    
    152      1     17     23       615.1           5000.           612.1    
    153      1     17     24       615.2           5000.           612.2    
    154      1     17     21       613.3           5000.           610.3    
    155      1     17     22       613.3           5000.           610.3    
    156      1     18     19       622.5           5000.           619.5    
    157      1     18     19       618.8           5000.           615.8    
    158      1     18     20       615.9           5000.           612.9    
    159      1     18     20       612.8           5000.           609.8    
    160      1     18     21       613.1           5000.           610.1    
    161      1     19     20       612.0           5000.           609.0    
    162      1     19     20       612.7           5000.           609.7    
    163      1     19     20       612.3           5000.           609.3    
    164      1     20     19       610.8           5000.           607.8    
    165      1     20     20       611.5           5000.           608.5    
    166      1     20     19       610.4           5000.           607.4    
    167      1     20     19       611.3           5000.           608.3    
    168      1     21     19       610.3           5000.           607.3    
    169      1     22     19       610.3           5000.           607.3    
    170      1     22     19       609.7           5000.           606.7    
    171      1     22     60       588.7           5000.           585.7    
    172      1     22     60       588.7           5000.           585.7    
    173      1     23     19       608.7           5000.           605.7    
    174      1     23     59       588.7           5000.           585.7    
    175      1     23     59       588.7           5000.           585.7    
    176      1     23     60       588.7           5000.           585.7    
    177      1     24     18       608.3           5000.           605.3    
    178      1     24     19       608.1           5000.           605.1    
    179      1     24     57       588.7           5000.           585.7    
    180      1     24     58       588.7           5000.           585.7    
    181      1     24     59       588.7           5000.           585.7    
    182      1     24     60       578.8           5000.           575.8    
    183      1     24     60       578.8           5000.           575.8    
    184      1     24     19       607.7           5000.           604.7    
    185      1     24     56       588.7           5000.           585.7    
    186      1     24     57       588.7           5000.           585.7    
    187      1     24     57       588.7           5000.           585.7    
    188      1     24     59       578.8           5000.           575.8    
    189      1     24     59       578.8           5000.           575.8    
    190      1     24     60       578.8           5000.           575.8    
    191      1     24     60       576.2           5000.           573.2    
    192      1     25     19       607.4           5000.           604.4    
    193      1     25     55       588.7           5000.           585.7    
    194      1     25     56       588.7           5000.           585.7    
    195      1     25     57       578.8           5000.           575.8    
    196      1     25     58       578.8           5000.           575.8    
    197      1     25     59       578.8           5000.           575.8    
    198      1     25     59       576.2           5000.           573.2    
    199      1     25     60       576.2           5000.           573.2    
    200      1     25     60       577.8           5000.           574.8    
    201      1     25     19       607.7           5000.           604.7    
    202      1     25     19       607.0           5000.           604.0    
    203      1     25     55       588.7           5000.           585.7    
    204      1     25     55       588.7           5000.           585.7    
    205      1     25     56       578.8           5000.           575.8    
    206      1     25     57       578.8           5000.           575.8    
    207      1     25     57       578.8           5000.           575.8    
    208      1     25     58       576.2           5000.           573.2    
    209      1     25     59       576.2           5000.           573.2    
    210      1     25     59       576.2           5000.           573.2    
    211      1     26     19       611.8           5000.           608.8    
    212      1     26     19       606.7           5000.           603.7    
    213      1     26     54       588.7           5000.           585.7    
    214      1     26     55       588.7           5000.           585.7    
    215      1     26     55       578.8           5000.           575.8    
    216      1     26     56       578.8           5000.           575.8    
    217      1     26     57       576.2           5000.           573.2    
    218      1     26     57       576.2           5000.           573.2    
    219      1     26     58       576.2           5000.           573.2    
    220      1     27     19       606.8           5000.           603.8    
    221      1     27     54       585.0           5000.           582.0    
    222      1     27     54       588.7           5000.           585.7    
    223      1     27     55       578.8           5000.           575.8    
    224      1     27     55       578.8           5000.           575.8    
    225      1     27     56       576.2           5000.           573.2    
    226      1     27     57       576.2           5000.           573.2    
    227      1     27     19       608.2           5000.           605.2    
    228      1     27     53       585.0           5000.           582.0    
    229      1     27     54       585.0           5000.           582.0    
    230      1     27     54       578.8           5000.           575.8    
    231      1     27     55       578.8           5000.           575.8    
    232      1     27     55       576.2           5000.           573.2    
    233      1     27     56       576.2           5000.           573.2    
    234      1     28     19       606.3           5000.           603.3    
    235      1     28     52       585.0           5000.           582.0    
    236      1     28     53       585.0           5000.           582.0    
    237      1     28     54       578.8           5000.           575.8    
    238      1     28     54       578.8           5000.           575.8    
    239      1     28     55       576.2           5000.           573.2    
    240      1     28     55       576.2           5000.           573.2    
    241      1     28     56       584.8           5000.           581.8    
    242      1     29     19       606.6           5000.           603.6    
    243      1     29     19       606.3           5000.           603.3    
    244      1     29     52       585.0           5000.           582.0    
    245      1     29     52       585.0           5000.           582.0    
    246      1     29     54       578.8           5000.           575.8    
    247      1     29     55       576.2           5000.           573.2    
    248      1     29     19       605.3           5000.           602.3    
    249      1     29     52       585.0           5000.           582.0    
    250      1     29     53       578.8           5000.           575.8    
    251      1     29     54       578.8           5000.           575.8    
    252      1     29     54       576.2           5000.           573.2    
    253      1     29     55       576.2           5000.           573.2    
    254      1     30     19       604.2           5000.           601.2    
    255      1     30     51       585.0           5000.           582.0    
    256      1     30     52       585.0           5000.           582.0    
    257      1     30     53       578.8           5000.           575.8    
    258      1     30     54       576.2           5000.           573.2    
    259      1     30     54       576.2           5000.           573.2    
    260      1     30     19       603.8           5000.           600.8    
    261      1     30     51       585.0           5000.           582.0    
    262      1     30     53       576.2           5000.           573.2    
    263      1     30     54       576.2           5000.           573.2    
    264      1     31     19       603.4           5000.           600.4    
    265      1     31     51       585.0           5000.           582.0    
    266      1     31     52       578.8           5000.           575.8    
    267      1     31     53       576.2           5000.           573.2    
    268      1     32     19       603.1           5000.           600.1    
    269      1     32     50       585.0           5000.           582.0    
    270      1     32     51       585.0           5000.           582.0    
    271      1     32     52       578.8           5000.           575.8    
    272      1     32     53       576.2           5000.           573.2    
    273      1     32     19       602.8           5000.           599.8    
    274      1     32     50       584.9           5000.           581.9    
    275      1     32     50       585.0           5000.           582.0    
    276      1     32     52       578.8           5000.           575.8    
    277      1     32     53       576.2           5000.           573.2    
    278      1     33     19       602.5           5000.           599.5    
    279      1     33     50       584.7           5000.           581.7    
    280      1     33     52       578.8           5000.           575.8    
    281      1     33     53       576.2           5000.           573.2    
    282      1     34     16       606.9           5000.           603.9    
    283      1     34     17       607.2           5000.           604.2    
    284      1     34     19       602.1           5000.           599.1    
    285      1     34     19       602.4           5000.           599.4    
    286      1     34     49       585.5           5000.           582.5    
    287      1     34     50       585.9           5000.           582.9    
    288      1     34     52       578.8           5000.           575.8    
    289      1     34     53       576.2           5000.           573.2    
    290      1     34     16       605.8           5000.           602.8    
    291      1     34     19       602.0           5000.           599.0    
    292      1     34     49       585.4           5000.           582.4    
    293      1     34     52       578.8           5000.           575.8    
    294      1     34     53       576.2           5000.           573.2    
    295      1     35     16       605.8           5000.           602.8    
    296      1     35     17       601.8           5000.           598.8    
    297      1     35     18       602.2           5000.           599.2    
    298      1     35     19       602.2           5000.           599.2    
    299      1     35     49       582.5           5000.           579.5    
    300      1     35     52       578.8           5000.           575.8    
    301      1     35     53       576.2           5000.           573.2    
    302      1     35     17       601.4           5000.           598.4    
    303      1     35     17       601.6           5000.           598.6    
    304      1     35     49       579.8           5000.           576.8    
    305      1     35     50       578.8           5000.           575.8    
    306      1     35     52       578.8           5000.           575.8    
    307      1     35     53       576.2           5000.           573.2    
    308      1     36     15       603.5           5000.           600.5    
    309      1     36     17       600.7           5000.           597.7    
    310      1     36     50       578.8           5000.           575.8    
    311      1     36     52       578.8           5000.           575.8    
    312      1     36     53       576.2           5000.           573.2    
    313      1     37     15       603.6           5000.           600.6    
    314      1     37     15       603.5           5000.           600.5    
    315      1     37     16       600.2           5000.           597.2    
    316      1     37     17       600.2           5000.           597.2    
    317      1     37     50       578.8           5000.           575.8    
    318      1     37     52       578.8           5000.           575.8    
    319      1     37     53       576.2           5000.           573.2    
    320      1     37     15       603.5           5000.           600.5    
    321      1     37     16       600.5           5000.           597.5    
    322      1     37     50       578.5           5000.           575.5    
    323      1     37     52       578.8           5000.           575.8    
    324      1     37     53       576.2           5000.           573.2    
    325      1     38     15       603.1           5000.           600.1    
    326      1     38     15       601.0           5000.           598.0    
    327      1     38     16       599.8           5000.           596.8    
    328      1     38     50       578.8           5000.           575.8    
    329      1     38     52       578.5           5000.           575.5    
    330      1     38     53       576.2           5000.           573.2    
    331      1     39     14       602.4           5000.           599.4    
    332      1     39     15       603.2           5000.           600.2    
    333      1     39     15       598.9           5000.           595.9    
    334      1     39     50       578.4           5000.           575.4    
    335      1     39     50       579.6           5000.           576.6    
    336      1     39     52       576.2           5000.           573.2    
    337      1     39     53       576.2           5000.           573.2    
    338      1     39     15       602.4           5000.           599.4    
    339      1     39     15       598.4           5000.           595.4    
    340      1     39     16       598.4           5000.           595.4    
    341      1     39     50       574.8           5000.           571.8    
    342      1     39     52       576.2           5000.           573.2    
    343      1     39     53       578.7           5000.           575.7    
    344      1     40     15       602.4           5000.           599.4    
    345      1     40     16       598.4           5000.           595.4    
    346      1     40     50       569.7           5000.           566.7    
    347      1     40     52       573.9           5000.           570.9    
    348      1     40     53       578.3           5000.           575.3    
    349      1     40     15       596.8           5000.           593.8    
    350      1     40     15       598.4           5000.           595.4    
    351      1     40     16       598.4           5000.           595.4    
    352      1     40     50       568.6           5000.           565.6    
    353      1     40     52       573.9           5000.           570.9    
    354      1     40     52       573.9           5000.           570.9    
    355      1     40     53       578.3           5000.           575.3    
    356      1     41     14       606.0           5000.           603.0    
    357      1     41     14       596.7           5000.           593.7    
    358      1     41     15       596.6           5000.           593.6    
    359      1     41     50       568.6           5000.           565.6    
    360      1     41     52       573.9           5000.           570.9    
    361      1     41     52       576.2           5000.           573.2    
    362      1     41     53       578.3           5000.           575.3    
    363      1     42     14       602.5           5000.           599.5    
    364      1     42     14       596.6           5000.           593.6    
    365      1     42     15       596.6           5000.           593.6    
    366      1     42     15       596.6           5000.           593.6    
    367      1     42     50       568.6           5000.           565.6    
    368      1     42     52       573.9           5000.           570.9    
    369      1     42     52       576.2           5000.           573.2    
    370      1     42     53       579.1           5000.           576.1    
    371      1     42     14       596.2           5000.           593.2    
    372      1     42     15       596.5           5000.           593.5    
    373      1     42     50       568.6           5000.           565.6    
    374      1     42     52       573.9           5000.           570.9    
    375      1     42     52       576.2           5000.           573.2    
    376      1     43     14       593.2           5000.           590.2    
    377      1     43     14       593.3           5000.           590.3    
    378      1     43     15       593.5           5000.           590.5    
    379      1     43     50       559.6           5000.           556.6    
    380      1     43     52       573.9           5000.           570.9    
    381      1     43     52       576.2           5000.           573.2    
    382      1     44     13       595.3           5000.           592.3    
    383      1     44     14       592.9           5000.           589.9    
    384      1     44     49       559.6           5000.           556.6    
    385      1     44     50       559.6           5000.           556.6    
    386      1     44     52       573.9           5000.           570.9    
    387      1     44     52       576.2           5000.           573.2    
    388      1     44     13       593.0           5000.           590.0    
    389      1     44     49       559.6           5000.           556.6    
    390      1     44     50       559.6           5000.           556.6    
    391      1     44     52       573.9           5000.           570.9    
    392      1     44     52       576.2           5000.           573.2    
    393      1     45     13       593.5           5000.           590.5    
    394      1     45     50       559.6           5000.           556.6    
    395      1     45     50       563.3           5000.           560.3    
    396      1     45     52       573.9           5000.           570.9    
    397      1     45     52       579.0           5000.           576.0    
    398      1     45     12       592.8           5000.           589.8    
    399      1     45     13       593.6           5000.           590.6    
    400      1     45     50       559.6           5000.           556.6    
    401      1     45     50       563.3           5000.           560.3    
    402      1     45     52       573.9           5000.           570.9    
    403      1     45     52       578.8           5000.           575.8    
    404      1     45     53       578.8           5000.           575.8    
    405      1     46     12       591.8           5000.           588.8    
    406      1     46     12       593.1           5000.           590.1    
    407      1     46     50       559.6           5000.           556.6    
    408      1     46     50       563.3           5000.           560.3    
    409      1     46     52       573.9           5000.           570.9    
    410      1     46     52       575.0           5000.           572.0    
    411      1     47     12       590.6           5000.           587.6    
    412      1     47     50       559.6           5000.           556.6    
    413      1     47     50       559.6           5000.           556.6    
    414      1     47     52       573.9           5000.           570.9    
    415      1     47     52       575.1           5000.           572.1    
    416      1     47     12       589.9           5000.           586.9    
    417      1     47     50       559.6           5000.           556.6    
    418      1     47     50       559.6           5000.           556.6    
    419      1     47     52       569.1           5000.           566.1    
    420      1     47     52       575.8           5000.           572.8    
    421      1     47     53       575.0           5000.           572.0    
    422      1     48     11       588.6           5000.           585.6    
    423      1     48     12       591.8           5000.           588.8    
    424      1     48     50       559.6           5000.           556.6    
    425      1     48     50       561.8           5000.           558.8    
    426      1     48     52       568.7           5000.           565.7    
    427      1     48     53       574.9           5000.           571.9    
    428      1     49     11       588.3           5000.           585.3    
    429      1     49     49       559.6           5000.           556.6    
    430      1     49     50       559.6           5000.           556.6    
    431      1     49     50       559.6           5000.           556.6    
    432      1     49     51       573.9           5000.           570.9    
    433      1     49     52       566.5           5000.           563.5    
    434      1     49     53       574.9           5000.           571.9    
    435      1     49     54       574.9           5000.           571.9    
    436      1     49     54       578.8           5000.           575.8    
    437      1     49     55       584.9           5000.           581.9    
    438      1     49     55       587.8           5000.           584.8    
    439      1     49     11       588.0           5000.           585.0    
    440      1     49     49       559.6           5000.           556.6    
    441      1     49     50       559.6           5000.           556.6    
    442      1     49     50       559.6           5000.           556.6    
    443      1     49     51       573.9           5000.           570.9    
    444      1     49     52       566.4           5000.           563.4    
    445      1     49     54       574.9           5000.           571.9    
    446      1     50     10       588.0           5000.           585.0    
    447      1     50     10       588.1           5000.           585.1    
    448      1     50     11       588.2           5000.           585.2    
    449      1     50     50       558.8           5000.           555.8    
    450      1     50     50       558.8           5000.           555.8    
    451      1     50     51       572.3           5000.           569.3    
    452      1     50     52       563.4           5000.           560.4    
    453      1     50     54       574.9           5000.           571.9    
    454      1     50      9       587.5           5000.           584.5    
    455      1     50     10       587.7           5000.           584.7    
    456      1     50     50       558.8           5000.           555.8    
    457      1     50     51       578.8           5000.           575.8    
    458      1     50     52       562.8           5000.           559.8    
    459      1     50     54       574.9           5000.           571.9    
    460      1     51      7       592.7           5000.           589.7    
    461      1     51      8       592.7           5000.           589.7    
    462      1     51      9       586.6           5000.           583.6    
    463      1     51      9       587.1           5000.           584.1    
    464      1     51     50       558.8           5000.           555.8    
    465      1     51     51       578.8           5000.           575.8    
    466      1     51     52       560.7           5000.           557.7    
    467      1     51     54       574.9           5000.           571.9    
    468      1     52      8       586.4           5000.           583.4    
    469      1     52      9       587.1           5000.           584.1    
    470      1     52     50       548.6           5000.           545.6    
    471      1     52     50       558.8           5000.           555.8    
    472      1     52     51       578.8           5000.           575.8    
    473      1     52     52       559.9           5000.           556.9    
    474      1     52     53       574.6           5000.           571.6    
    475      1     52     54       574.9           5000.           571.9    
    476      1     52      8       586.4           5000.           583.4    
    477      1     52     50       548.6           5000.           545.6    
    478      1     52     50       579.0           5000.           576.0    
    479      1     52     52       558.5           5000.           555.5    
    480      1     52     53       574.5           5000.           571.5    
    481      1     52     54       579.5           5000.           576.5    
    482      1     52     54       588.9           5000.           585.9    
    483      1     52     55       596.8           5000.           593.8    
    484      1     52     55       611.2           5000.           608.2    
    485      1     53      8       585.8           5000.           582.8    
    486      1     53     50       548.6           5000.           545.6    
    487      1     53     50       549.4           5000.           546.4    
    488      1     53     52       557.2           5000.           554.2    
    489      1     53     53       574.0           5000.           571.0    
    490      1     53     55       610.7           5000.           607.7    
    491      1     54      7       585.4           5000.           582.4    
    492      1     54      8       585.8           5000.           582.8    
    493      1     54     20       585.7           5000.           582.7    
    494      1     54     50       548.6           5000.           545.6    
    495      1     54     50       565.8           5000.           562.8    
    496      1     54     51       556.6           5000.           553.6    
    497      1     54     52       556.5           5000.           553.5    
    498      1     54     52       568.8           5000.           565.8    
    499      1     54     53       573.9           5000.           570.9    
    500      1     54      7       586.5           5000.           583.5    
    501      1     54      7       586.8           5000.           583.8    
    502      1     54     20       585.6           5000.           582.6    
    503      1     54     49       548.6           5000.           545.6    
    504      1     54     50       548.6           5000.           545.6    
    505      1     54     50       556.5           5000.           553.5    
    506      1     54     51       555.4           5000.           552.4    
    507      1     54     52       568.4           5000.           565.4    
    508      1     55      7       586.2           5000.           583.2    
    509      1     55      7       585.9           5000.           582.9    
    510      1     55     20       585.0           5000.           582.0    
    511      1     55     20       585.2           5000.           582.2    
    512      1     55     49       548.6           5000.           545.6    
    513      1     55     50       548.6           5000.           545.6    
    514      1     55     50       554.5           5000.           551.5    
    515      1     55     51       554.9           5000.           551.9    
    516      1     55     52       568.0           5000.           565.0    
    517      1     55      7       584.5           5000.           581.5    
    518      1     55     20       584.8           5000.           581.8    
    519      1     55     49       544.9           5000.           541.9    
    520      1     55     50       544.9           5000.           541.9    
    521      1     55     50       553.6           5000.           550.6    
    522      1     55     52       566.8           5000.           563.8    
    523      1     55     52       567.6           5000.           564.6    
    524      1     56      7       584.2           5000.           581.2    
    525      1     56      8       582.9           5000.           579.9    
    526      1     56     19       583.9           5000.           580.9    
    527      1     56     20       584.6           5000.           581.6    
    528      1     56     49       556.8           5000.           553.8    
    529      1     56     50       552.6           5000.           549.6    
    530      1     56     50       553.2           5000.           550.2    
    531      1     56     52       564.7           5000.           561.7    
    532      1     57      8       582.4           5000.           579.4    
    533      1     57      9       582.4           5000.           579.4    
    534      1     57     19       583.9           5000.           580.9    
    535      1     57     20       583.9           5000.           580.9    
    536      1     57     49       555.5           5000.           552.5    
    537      1     57     49       551.6           5000.           548.6    
    538      1     57     50       551.8           5000.           548.8    
    539      1     57     51       564.0           5000.           561.0    
    540      1     57     52       563.5           5000.           560.5    
    541      1     57      6       596.3           5000.           593.3    
    542      1     57      7       596.7           5000.           593.7    
    543      1     57      9       582.4           5000.           579.4    
    544      1     57      9       582.4           5000.           579.4    
    545      1     57     20       583.0           5000.           580.0    
    546      1     57     49       553.7           5000.           550.7    
    547      1     57     49       550.4           5000.           547.4    
    548      1     57     51       562.7           5000.           559.7    
    549      1     58      7       595.2           5000.           592.2    
    550      1     58      7       592.5           5000.           589.5    
    551      1     58      8       588.9           5000.           585.9    
    552      1     58      9       583.4           5000.           580.4    
    553      1     58      9       582.4           5000.           579.4    
    554      1     58     10       582.4           5000.           579.4    
    555      1     58     10       582.4           5000.           579.4    
    556      1     58     19       582.7           5000.           579.7    
    557      1     58     20       583.0           5000.           580.0    
    558      1     58     48       544.9           5000.           541.9    
    559      1     58     49       545.5           5000.           542.5    
    560      1     58     49       548.1           5000.           545.1    
    561      1     58     51       560.6           5000.           557.6    
    562      1     59      9       595.9           5000.           592.9    
    563      1     59     10       582.4           5000.           579.4    
    564      1     59     11       582.6           5000.           579.6    
    565      1     59     19       582.7           5000.           579.7    
    566      1     59     19       582.7           5000.           579.7    
    567      1     59     48       544.6           5000.           541.6    
    568      1     59     49       545.2           5000.           542.2    
    569      1     59     50       561.9           5000.           558.9    
    570      1     59     51       563.5           5000.           560.5    
    571      1     59     52       574.4           5000.           571.4    
    572      1     59     52       581.6           5000.           578.6    
    573      1     59     53       596.2           5000.           593.2    
    574      1     59      9       596.4           5000.           593.4    
    575      1     59     10       582.0           5000.           579.0    
    576      1     59     11       582.0           5000.           579.0    
    577      1     59     12       582.0           5000.           579.0    
    578      1     59     12       582.0           5000.           579.0    
    579      1     59     13       581.8           5000.           578.8    
    580      1     59     14       581.8           5000.           578.8    
    581      1     59     19       582.7           5000.           579.7    
    582      1     59     46       560.8           5000.           557.8    
    583      1     59     47       544.8           5000.           541.8    
    584      1     59     47       542.8           5000.           539.8    
    585      1     59     49       542.2           5000.           539.2    
    586      1     59     50       563.2           5000.           560.2    
    587      1     59     51       570.9           5000.           567.9    
    588      1     59     52       573.7           5000.           570.7    
    589      1     60     14       581.8           5000.           578.8    
    590      1     60     14       581.4           5000.           578.4    
    591      1     60     15       581.4           5000.           578.4    
    592      1     60     15       582.2           5000.           579.2    
    593      1     60     19       582.7           5000.           579.7    
    594      1     60     47       542.4           5000.           539.4    
    595      1     60     49       541.0           5000.           538.0    
    596      1     60     50       562.0           5000.           559.0    
    597      1     60     15       581.2           5000.           578.2    
    598      1     60     16       580.8           5000.           577.8    
    599      1     60     17       580.5           5000.           577.5    
    600      1     60     18       582.7           5000.           579.7    
    601      1     60     19       582.7           5000.           579.7    
    602      1     60     47       551.6           5000.           548.6    
    603      1     60     48       541.0           5000.           538.0    
    604      1     60     49       541.0           5000.           538.0    
    605      1     60     50       558.3           5000.           555.3    
    606      1     60     50       558.3           5000.           555.3    
    607      1     61     17       580.4           5000.           577.4    
    608      1     61     17       580.2           5000.           577.2    
    609      1     61     18       582.7           5000.           579.7    
    610      1     61     47       550.9           5000.           547.9    
    611      1     61     48       538.5           5000.           535.5    
    612      1     61     50       556.0           5000.           553.0    
    613      1     62     17       579.8           5000.           576.8    
    614      1     62     47       543.6           5000.           540.6    
    615      1     62     50       555.6           5000.           552.6    
    616      1     62     17       580.2           5000.           577.2    
    617      1     62     18       580.0           5000.           577.0    
    618      1     62     47       543.1           5000.           540.1    
    619      1     62     50       553.8           5000.           550.8    
    620      1     63     18       579.7           5000.           576.7    
    621      1     63     47       540.7           5000.           537.7    
    622      1     63     49       555.3           5000.           552.3    
    623      1     63     50       553.4           5000.           550.4    
    624      1     64     18       580.3           5000.           577.3    
    625      1     64     19       580.0           5000.           577.0    
    626      1     64     19       582.5           5000.           579.5    
    627      1     64     20       583.5           5000.           580.5    
    628      1     64     20       583.5           5000.           580.5    
    629      1     64     47       540.7           5000.           537.7    
    630      1     64     48       560.0           5000.           557.0    
    631      1     64     49       552.5           5000.           549.5    
    632      1     64     19       579.2           5000.           576.2    
    633      1     64     19       578.4           5000.           575.4    
    634      1     64     48       554.0           5000.           551.0    
    635      1     64     49       550.6           5000.           547.6    
    636      1     65     19       578.4           5000.           575.4    
    637      1     65     20       578.2           5000.           575.2    
    638      1     65     48       538.0           5000.           535.0    
    639      1     65     49       550.0           5000.           547.0    
    640      1     65     49       550.0           5000.           547.0    
    641      1     65     20       577.5           5000.           574.5    
    642      1     65     48       538.0           5000.           535.0    
    643      1     65     49       542.4           5000.           539.4    
    644      1     66     19       577.2           5000.           574.2    
    645      1     66     20       577.7           5000.           574.7    
    646      1     66     48       538.0           5000.           535.0    
    647      1     66     49       542.4           5000.           539.4    
    648      1     67     19       576.6           5000.           573.6    
    649      1     67     48       538.0           5000.           535.0    
    650      1     67     49       538.2           5000.           535.2    
    651      1     67     19       576.3           5000.           573.3    
    652      1     67     47       538.0           5000.           535.0    
    653      1     67     48       538.0           5000.           535.0    
    654      1     67     49       538.1           5000.           535.1    
    655      1     68     19       575.8           5000.           572.8    
    656      1     68     47       537.8           5000.           534.8    
    657      1     68     48       538.5           5000.           535.5    
    658      1     69     19       575.6           5000.           572.6    
    659      1     69     47       537.8           5000.           534.8    
    660      1     69     48       539.8           5000.           536.8    
    661      1     69     19       575.4           5000.           572.4    
    662      1     69     47       537.6           5000.           534.6    
    663      1     69     47       537.8           5000.           534.8    
    664      1     69     48       537.5           5000.           534.5    
    665      1     70     19       574.8           5000.           571.8    
    666      1     70     20       577.3           5000.           574.3    
    667      1     70     47       537.6           5000.           534.6    
    668      1     70     47       537.5           5000.           534.5    
    669      1     70     19       574.9           5000.           571.9    
    670      1     70     47       537.6           5000.           534.6    
    671      1     70     47       537.5           5000.           534.5    
    672      1     71     19       573.6           5000.           570.6    
    673      1     71     47       537.5           5000.           534.5    
    674      1     71     47       537.5           5000.           534.5    
    675      1     72     19       573.6           5000.           570.6    
    676      1     72     20       573.2           5000.           570.2    
    677      1     72     47       537.5           5000.           534.5    
    678      1     72     20       572.9           5000.           569.9    
    679      1     72     47       537.2           5000.           534.2    
    680      1     73     19       572.9           5000.           569.9    
    681      1     73     20       572.9           5000.           569.9    
    682      1     73     47       537.2           5000.           534.2    
    683      1     74     17       570.9           5000.           567.9    
    684      1     74     18       571.9           5000.           568.9    
    685      1     74     19       572.1           5000.           569.1    
    686      1     74     19       572.6           5000.           569.6    
    687      1     74     46       537.2           5000.           534.2    
    688      1     74     47       537.2           5000.           534.2    
    689      1     74     60       579.7           5000.           576.7    
    690      1     74     17       569.0           5000.           566.0    
    691      1     74     17       570.1           5000.           567.1    
    692      1     74     18       571.2           5000.           568.2    
    693      1     74     19       571.9           5000.           568.9    
    694      1     74     46       537.2           5000.           534.2    
    695      1     74     60       568.8           5000.           565.8    
    696      1     74     60       569.8           5000.           566.8    
    697      1     75     17       568.3           5000.           565.3    
    698      1     75     17       568.1           5000.           565.1    
    699      1     75     18       571.9           5000.           568.9    
    700      1     75     46       537.2           5000.           534.2    
    701      1     75     59       564.1           5000.           561.1    
    702      1     75     60       568.7           5000.           565.7    
    703      1     75     17       567.5           5000.           564.5    
    704      1     75     46       537.1           5000.           534.1    
    705      1     75     57       560.9           5000.           557.9    
    706      1     75     57       569.9           5000.           566.9    
    707      1     75     58       561.0           5000.           558.0    
    708      1     75     59       560.2           5000.           557.2    
    709      1     75     59       560.2           5000.           557.2    
    710      1     76     14       582.0           5000.           579.0    
    711      1     76     17       566.0           5000.           563.0    
    712      1     76     46       537.1           5000.           534.1    
    713      1     76     51       532.1           5000.           529.1    
    714      1     76     52       538.5           5000.           535.5    
    715      1     76     52       538.3           5000.           535.3    
    716      1     76     53       549.4           5000.           546.4    
    717      1     76     54       543.8           5000.           540.8    
    718      1     76     54       546.5           5000.           543.5    
    719      1     76     55       553.5           5000.           550.5    
    720      1     76     55       559.7           5000.           556.7    
    721      1     76     56       556.5           5000.           553.5    
    722      1     76     57       556.5           5000.           553.5    
    723      1     76     58       560.2           5000.           557.2    
    724      1     76     59       560.2           5000.           557.2    
    725      1     77     14       580.7           5000.           577.7    
    726      1     77     14       578.2           5000.           575.2    
    727      1     77     15       576.3           5000.           573.3    
    728      1     77     15       573.0           5000.           570.0    
    729      1     77     16       569.2           5000.           566.2    
    730      1     77     17       565.5           5000.           562.5    
    731      1     77     45       537.0           5000.           534.0    
    732      1     77     46       537.0           5000.           534.0    
    733      1     77     51       529.3           5000.           526.3    
    734      1     77     52       536.6           5000.           533.6    
    735      1     77     17       562.4           5000.           559.4    
    736      1     77     17       564.8           5000.           561.8    
    737      1     77     45       536.7           5000.           533.7    
    738      1     77     50       528.1           5000.           525.1    
    739      1     77     51       528.6           5000.           525.6    
    740      1     78     15       561.2           5000.           558.2    
    741      1     78     16       561.8           5000.           558.8    
    742      1     78     17       562.4           5000.           559.4    
    743      1     78     45       536.7           5000.           533.7    
    744      1     78     50       526.8           5000.           523.8    
    745      1     79     15       562.7           5000.           559.7    
    746      1     79     15       560.3           5000.           557.3    
    747      1     79     45       536.7           5000.           533.7    
    748      1     79     50       525.4           5000.           522.4    
    749      1     79     14       562.5           5000.           559.5    
    750      1     79     15       562.5           5000.           559.5    
    751      1     79     45       536.7           5000.           533.7    
    752      1     79     50       524.6           5000.           521.6    
    753      1     79     50       524.4           5000.           521.4    
    754      1     80     14       562.4           5000.           559.4    
    755      1     80     14       562.4           5000.           559.4    
    756      1     80     45       536.7           5000.           533.7    
    757      1     80     45       536.7           5000.           533.7    
    758      1     80     49       523.2           5000.           520.2    
    759      1     80     50       523.3           5000.           520.3    
    760      1     80     14       560.2           5000.           557.2    
    761      1     80     45       536.7           5000.           533.7    
    762      1     80     49       519.5           5000.           516.5    
    763      1     80     49       523.0           5000.           520.0    
    764      1     81     14       559.6           5000.           556.6    
    765      1     81     44       536.4           5000.           533.4    
    766      1     81     45       536.8           5000.           533.8    
    767      1     81     48       519.8           5000.           516.8    
    768      1     81     49       518.6           5000.           515.6    
    769      1     82     14       558.8           5000.           555.8    
    770      1     82     44       536.4           5000.           533.4    
    771      1     82     47       518.1           5000.           515.1    
    772      1     82     47       518.8           5000.           515.8    
    773      1     82     48       519.9           5000.           516.9    
    774      1     82     11       576.9           5000.           573.9    
    775      1     82     12       575.3           5000.           572.3    
    776      1     82     14       558.1           5000.           555.1    
    777      1     82     44       536.4           5000.           533.4    
    778      1     82     44       537.0           5000.           534.0    
    779      1     82     47       514.0           5000.           511.0    
    780      1     83     12       556.7           5000.           553.7    
    781      1     83     12       556.7           5000.           553.7    
    782      1     83     13       557.2           5000.           554.2    
    783      1     83     14       557.6           5000.           554.6    
    784      1     83     43       536.6           5000.           533.6    
    785      1     83     44       536.4           5000.           533.4    
    786      1     83     45       513.1           5000.           510.1    
    787      1     83     46       515.1           5000.           512.1    
    788      1     84      9       589.2           5000.           586.2    
    789      1     84     11       556.7           5000.           553.7    
    790      1     84     12       557.3           5000.           554.3    
    791      1     84     12       557.0           5000.           554.0    
    792      1     84     40       527.6           5000.           524.6    
    793      1     84     41       520.4           5000.           517.4    
    794      1     84     42       536.4           5000.           533.4    
    795      1     84     42       508.9           5000.           505.9    
    796      1     84     43       536.0           5000.           533.0    
    797      1     84     44       509.4           5000.           506.4    
    798      1     84     44       510.6           5000.           507.6    
    799      1     84     45       510.3           5000.           507.3    
    800      1     84     45       510.3           5000.           507.3    
    801      1     84      9       588.5           5000.           585.5    
    802      1     84      9       582.1           5000.           579.1    
    803      1     84     10       572.5           5000.           569.5    
    804      1     84     10       556.7           5000.           553.7    
    805      1     84     11       556.7           5000.           553.7    
    806      1     84     12       558.8           5000.           555.8    
    807      1     84     39       522.8           5000.           519.8    
    808      1     84     40       522.8           5000.           519.8    
    809      1     84     40       522.8           5000.           519.8    
    810      1     84     42       506.2           5000.           503.2    
    811      1     84     43       508.5           5000.           505.5    
    812      1     84     44       510.7           5000.           507.7    
    813      1     84     44       520.4           5000.           517.4    
    814      1     84     45       538.2           5000.           535.2    
    815      1     85     10       556.7           5000.           553.7    
    816      1     85     39       522.8           5000.           519.8    
    817      1     85     39       522.8           5000.           519.8    
    818      1     85     42       505.2           5000.           502.2    
    819      1     85     42       506.2           5000.           503.2    
    820      1     85     44       528.1           5000.           525.1    
    821      1     85     45       538.2           5000.           535.2    
    822      1     85     45       538.2           5000.           535.2    
    823      1     85     10       556.2           5000.           553.2    
    824      1     85     40       503.7           5000.           500.7    
    825      1     85     41       503.7           5000.           500.7    
    826      1     85     42       504.8           5000.           501.8    
    827      1     86      9       575.2           5000.           572.2    
    828      1     86      9       566.6           5000.           563.6    
    829      1     86     10       556.8           5000.           553.8    
    830      1     86     10       548.5           5000.           545.5    
    831      1     86     39       503.5           5000.           500.5    
    832      1     86     40       503.5           5000.           500.5    
    833      1     86     40       503.7           5000.           500.7    
    834      1     87     10       548.3           5000.           545.3    
    835      1     87     37       503.5           5000.           500.5    
    836      1     87     38       503.5           5000.           500.5    
    837      1     87     39       503.5           5000.           500.5    
    838      1     87     39       503.5           5000.           500.5    
    839      1     87     10       548.2           5000.           545.2    
    840      1     87     37       503.5           5000.           500.5    
    841      1     87     37       503.5           5000.           500.5    
    842      1     88     10       547.8           5000.           544.8    
    843      1     88     11       547.7           5000.           544.7    
    844      1     88     37       503.5           5000.           500.5    
    845      1     89     11       546.9           5000.           543.9    
    846      1     89     36       503.5           5000.           500.5    
    847      1     89     37       503.5           5000.           500.5    
    848      1     89     11       548.3           5000.           545.3    
    849      1     89     12       546.9           5000.           543.9    
    850      1     89     35       503.5           5000.           500.5    
    851      1     90     12       545.3           5000.           542.3    
    852      1     90     35       503.5           5000.           500.5    
    853      1     90     35       503.5           5000.           500.5    
    854      1     90     12       546.3           5000.           543.3    
    855      1     90     12       544.4           5000.           541.4    
    856      1     90     34       503.5           5000.           500.5    
    857      1     90     35       503.5           5000.           500.5    
    858      1     91     12       542.9           5000.           539.9    
    859      1     91     12       543.3           5000.           540.3    
    860      1     91     34       503.4           5000.           500.4    
    861      1     91     34       503.4           5000.           500.4    
    862      1     92     12       543.1           5000.           540.1    
    863      1     92     12       542.5           5000.           539.5    
    864      1     92     32       503.4           5000.           500.4    
    865      1     92     33       503.4           5000.           500.4    
    866      1     92     34       503.4           5000.           500.4    
    867      1     92     12       541.2           5000.           538.2    
    868      1     92     32       503.4           5000.           500.4    
    869      1     92     32       503.4           5000.           500.4    
    870      1     93     12       540.5           5000.           537.5    
    871      1     93     12       540.8           5000.           537.8    
    872      1     93     31       503.4           5000.           500.4    
    873      1     93     32       503.4           5000.           500.4    
    874      1     94     12       540.3           5000.           537.3    
    875      1     94     30       503.4           5000.           500.4    
    876      1     94     31       503.4           5000.           500.4    
    877      1     94     11       538.4           5000.           535.4    
    878      1     94     12       540.6           5000.           537.6    
    879      1     94     29       503.4           5000.           500.4    
    880      1     94     30       503.4           5000.           500.4    
    881      1     94     30       503.4           5000.           500.4    
    882      1     95     11       537.6           5000.           534.6    
    883      1     95     29       503.4           5000.           500.4    
    884      1     95     29       503.4           5000.           500.4    
    885      1     95     11       536.6           5000.           533.6    
    886      1     95     12       531.9           5000.           528.9    
    887      1     95     13       530.3           5000.           527.3    
    888      1     95     27       503.4           5000.           500.4    
    889      1     95     27       503.4           5000.           500.4    
    890      1     95     28       503.4           5000.           500.4    
    891      1     95     29       503.4           5000.           500.4    
    892      1     95     29       503.4           5000.           500.4    
    893      1     96     11       536.0           5000.           533.0    
    894      1     96     12       532.5           5000.           529.5    
    895      1     96     12       532.1           5000.           529.1    
    896      1     96     13       528.6           5000.           525.6    
    897      1     96     26       503.4           5000.           500.4    
    898      1     96     27       503.4           5000.           500.4    
    899      1     97     13       527.3           5000.           524.3    
    900      1     97     25       503.4           5000.           500.4    
    901      1     97     26       503.4           5000.           500.4    
    902      1     97     12       527.2           5000.           524.2    
    903      1     97     13       526.8           5000.           523.8    
    904      1     97     25       503.4           5000.           500.4    
    905      1     97     25       503.4           5000.           500.4    
    906      1     98     12       523.6           5000.           520.6    
    907      1     98     12       524.6           5000.           521.6    
    908      1     98     24       503.4           5000.           500.4    
    909      1     98     25       503.4           5000.           500.4    
    910      1     99      9       528.3           5000.           525.3    
    911      1     99     10       528.8           5000.           525.8    
    912      1     99     11       523.1           5000.           520.1    
    913      1     99     12       522.7           5000.           519.7    
    914      1     99     24       503.4           5000.           500.4    
    915      1     99     25       505.6           5000.           502.6    
    916      1     99     10       521.7           5000.           518.7    
    917      1     99     10       521.3           5000.           518.3    
    918      1     99     11       522.6           5000.           519.6    
    919      1     99     13       521.2           5000.           518.2    
    920      1     99     24       503.4           5000.           500.4    
    921      1     99     24       503.5           5000.           500.5    
    922      1     99     25       503.4           5000.           500.4    
    923      1    100     10       518.8           5000.           515.8    
    924      1    100     11       520.4           5000.           517.4    
    925      1    100     12       520.4           5000.           517.4    
    926      1    100     13       521.1           5000.           518.1    
    927      1    100     24       503.4           5000.           500.4    
    928      1    100     24       505.1           5000.           502.1    
    929      1    100      9       518.7           5000.           515.7    
    930      1    100     10       517.9           5000.           514.9    
    931      1    100     10       518.9           5000.           515.9    
    932      1    100     11       522.6           5000.           519.6    
    933      1    100     12       522.7           5000.           519.7    
    934      1    100     12       521.3           5000.           518.3    
    935      1    100     24       503.4           5000.           500.4    
    936      1    100     24       503.4           5000.           500.4    
    937      1    101      7       517.6           5000.           514.6    
    938      1    101      8       517.5           5000.           514.5    
    939      1    101      9       517.5           5000.           514.5    
    940      1    101      9       517.8           5000.           514.8    
    941      1    101     10       520.7           5000.           517.7    
    942      1    101     24       503.4           5000.           500.4    
    943      1    101     25       524.6           5000.           521.6    
    944      1    102      7       517.8           5000.           514.8    
    945      1    102      7       517.9           5000.           514.9    
    946      1    102     10       520.7           5000.           517.7    
    947      1    102     10       521.3           5000.           518.3    
    948      1    102     24       503.4           5000.           500.4    
    949      1    102     25       527.3           5000.           524.3    
    950      1    102      6       517.9           5000.           514.9    
    951      1    102      7       517.9           5000.           514.9    
    952      1    102      9       521.5           5000.           518.5    
    953      1    102     10       521.5           5000.           518.5    
    954      1    102     24       503.4           5000.           500.4    
[...]
        506.3       505.5       504.3       502.4       499.8       496.5       492.2       487.1       480.9       473.7    
        465.2       455.4       444.1       431.2       416.7       400.4       382.3       362.2       340.3       316.4    
        290.8       263.3       234.3       203.8       172.1       139.2       105.3       70.73       35.56       0.000    
  98    10.00       85.43       158.9       228.7       293.4       351.9       403.8       449.1       488.0       506.9    
        518.4       524.1       524.4       524.8       524.9       524.5       523.7       522.5       520.8       518.8    
        516.2       513.1       509.1       503.5       503.4       505.3       506.6       507.5       507.9       508.0    
        507.8       507.1       505.9       504.0       501.6       498.3       494.3       489.3       483.4       476.3    
        468.1       458.5       447.5       434.8       420.5       404.4       386.3       366.3       344.3       320.3    
        294.4       266.6       237.3       206.4       174.2       140.8       106.6       71.54       35.96       0.000    
  99    10.00       92.49       172.6       248.0       316.8       377.7       429.9       475.0       527.3       522.9    
        522.8       522.7       521.3       522.8       523.1       522.8       522.0       520.8       519.2       517.1    
        514.7       511.6       507.9       503.4       504.5       507.5       508.7       509.3       509.7       509.8    
        509.5       508.9       507.8       506.2       503.9       500.8       497.1       492.4       486.7       480.0    
        472.1       462.9       452.2       440.0       425.9       410.0       392.2       372.2       350.1       325.9    
        299.6       271.4       241.5       210.0       177.2       143.2       108.3       72.72       36.55       0.000    
 100    10.00       101.8       190.6       273.7       348.1       411.9       463.0       493.5       518.6       518.6    
        521.5       521.5       521.1       521.7       521.7       521.3       520.5       519.3       517.7       515.8    
        513.4       510.6       507.4       503.8       510.9       511.2       511.1       511.2       511.5       511.6    
        511.5       511.0       510.1       508.7       506.7       503.9       500.5       496.2       490.9       484.7    
        477.3       468.5       458.4       446.6       433.0       417.5       399.9       380.0       357.8       333.3    
        306.5       277.7       247.1       214.8       181.1       146.4       110.7       74.26       37.31       0.000    
 101    10.00       113.8       214.3       307.8       389.7       458.8       516.5       517.2       517.7       520.6    
        521.0       521.1       520.9       520.9       520.6       520.1       519.2       518.0       516.5       514.6    
        512.4       509.8       506.9       503.6       524.0       515.1       513.0       512.8       513.2       513.5    
        513.6       513.4       512.8       511.6       509.9       507.6       504.6       500.7       496.0       490.3    
        483.5       475.4       466.0       454.9       441.9       426.9       409.6       389.9       367.6       342.7    
        315.3       285.7       254.1       220.7       186.0       150.2       113.5       76.12       38.23       0.000    
 102    10.00       128.8       244.9       353.4       443.9       516.6       517.9       519.0       521.4       521.2    
        520.8       520.6       520.4       520.1       519.6       519.0       518.1       516.9       515.4       513.6    
        511.6       509.2       506.6       503.4       509.4       512.0       512.9       513.8       514.6       515.4    
        515.8       516.0       515.7       515.0       513.7       511.8       509.2       505.9       501.8       496.8    
        490.8       483.6       475.0       464.7       452.6       438.4       421.6       402.1       379.8       354.4    
        326.2       295.5       262.6       227.9       191.8       154.7       116.8       78.29       39.30       0.000    
 103    10.00       146.2       283.0       416.7       515.6       518.1       518.4       519.5       521.4       520.7    
        520.3       520.0       519.6       519.2       518.7       517.9       517.0       515.8       514.3       512.7    
        510.8       508.7       506.6       505.0       506.4       510.2       512.6       514.5       516.0       517.3    
        518.2       518.8       518.9       518.6       517.8       516.4       514.4       511.7       508.4       504.2    
        499.1       492.9       485.4       476.3       465.4       452.1       436.2       417.1       394.7       368.8    
        339.4       307.2       272.6       236.2       198.5       159.9       120.5       80.71       40.50       0.000    
 104    10.00       162.7       324.2       514.5       515.9       517.0       517.9       518.8       519.6       519.7    
        519.5       519.2       518.8       518.3       517.7       516.9       515.9       514.7       513.3       511.8    
        510.0       508.1       506.0       503.4       505.7       509.5       512.7       515.4       517.6       519.4    
        520.8       521.8       522.4       522.6       522.2       521.4       520.0       518.1       515.5       512.3    
        508.2       503.3       497.1       489.6       480.2       468.4       453.6       435.3       413.0       386.3    
        355.4       321.1       284.2       245.6       205.9       165.5       124.6       83.31       41.77       0.000    
 105    10.00       170.3       336.2       512.8       514.6       516.1       517.1       517.9       518.5       518.6    
        518.5       518.3       517.8       517.3       516.6       515.8       514.8       513.7       512.3       510.9    
        509.2       507.4       505.5       503.4       505.4       509.4       513.1       516.4       519.3       521.6    
        523.6       525.1       526.2       526.8       527.0       526.8       526.1       524.9       523.2       521.0    
        518.1       514.6       510.2       504.5       497.1       487.4       474.4       457.3       435.4       407.8    
        374.6       337.3       297.4       256.0       213.9       171.4       128.8       85.98       43.07       0.000    
 106    10.00       172.2       337.3       511.5       513.7       515.3       516.4       517.1       517.5       517.7    
        517.6       517.3       516.8       516.3       515.6       514.7       513.7       512.6       511.3       509.9    
        508.4       506.7       505.1       503.4       503.4       509.1       513.8       517.8       521.2       524.1    
        526.5       528.5       530.1       531.3       532.1       532.4       532.4       531.9       531.1       530.0    
        528.6       526.7       524.2       520.9       516.3       509.4       499.0       484.1       463.2       434.6    
        397.8       355.9       311.8       266.9       222.0       177.3       132.9       88.58       44.33       0.000    
 107    10.00       171.1       329.0       467.7       513.3       514.8       515.8       516.4       516.7       516.7    
        516.6       516.2       515.8       515.2       514.5       513.6       512.6       511.5       510.2       508.8    
        507.4       505.9       504.5       503.4       503.4       509.7       515.1       519.6       523.5       526.9    
        529.8       532.2       534.3       536.0       537.3       538.2       538.8       539.1       539.3       539.2    
        539.2       539.1       539.0       538.6       537.4       534.7       528.0       516.6       498.4       469.6    
        425.8       376.6       326.7       277.6       229.7       182.8       136.6       90.93       45.46       0.000    
 108    10.00       173.2       339.5       516.8       513.4       514.7       515.4       515.8       515.9       515.8    
        515.5       515.1       514.6       514.0       513.3       512.4       511.4       510.3       509.0       507.6    
        506.2       504.8       503.4       503.4       503.5       511.1       516.9       521.8       526.1       529.9    
        533.2       536.1       538.7       540.9       542.7       544.2       545.4       546.4       547.3       548.3    
        549.6       551.4       553.7       556.8       559.9       563.6       561.6       555.7       544.1       519.3    
        459.2       397.8       340.5       287.0       236.2       187.3       139.7       92.86       46.39       0.000    
 109    10.00       171.9       339.0       516.6       513.9       514.8       515.3       515.3       515.1       514.8    
        514.4       513.9       513.4       512.8       512.0       511.1       510.1       509.0       507.7       506.3    
        504.9       503.4       503.4       505.3       508.5       514.0       519.4       524.4       529.0       533.1    
        536.8       540.2       543.3       545.9       548.3       550.3       551.9       553.4       555.0       556.9    
        559.4       562.8       567.7       574.6       581.7       598.1       599.0       600.4       602.6       604.1    
        493.5       414.8       350.4       293.4       240.6       190.4       141.8       94.19       47.04       0.000    
 110    10.00       165.1       327.7       515.2       515.0       515.1       515.3       514.8       514.2       513.7    
        513.2       512.6       512.1       511.4       510.7       509.8       508.8       507.6       506.3       504.9    
        503.4       503.4       503.4       505.8       511.0       516.7       522.2       527.3       532.1       536.5    
        540.6       544.4       548.0       551.2       554.0       556.4       558.4       560.3       562.2       564.7    
        568.0       572.6       579.3       592.2       593.8       596.3       596.2       592.2       607.2       604.1    
        495.7       417.2       352.6       295.3       242.2       191.7       142.8       94.84       47.36       0.000    
 111    10.00       150.5       291.3       426.6       516.0       515.2       515.9       514.2       513.1       512.4    
        511.8       511.2       510.6       510.0       509.2       508.4       507.4       506.2       504.9       503.4    
        503.4       504.5       503.4       503.5       512.6       519.4       525.2       530.4       535.4       540.0    
        544.5       548.8       552.8       556.5       559.9       562.8       564.9       566.7       568.8       571.5    
        575.1       580.1       584.5       590.1       585.8       580.8       574.0       564.8       554.5       528.3    
        467.6       405.6       347.4       292.9       241.1       191.2       142.6       94.80       47.36       0.000    
 112    10.00       135.5       260.2       383.8       514.6       513.5       515.9       512.9       511.4       510.7    
        510.1       509.6       509.0       508.4       507.7       506.9       505.9       504.8       503.4       503.4    
        505.9       507.6       508.5       508.3       516.5       522.8       528.4       533.7       538.7       543.6    
        548.4       553.1       557.7       562.0       566.1       569.8       571.6       572.8       574.4       577.2    
        580.7       587.9       588.2       589.1       578.1       567.0       554.1       538.3       517.6       486.5    
        440.9       389.9       338.2       287.5       237.9       189.3       141.5       94.17       47.08       0.000    
 113    10.00       121.2       230.0       333.5       424.3       473.3       513.7       509.8       508.9       508.5    
        508.2       507.8       507.3       506.8       506.1       505.3       504.5       503.4       503.4       506.2    
        508.9       511.4       514.3       519.3       522.0       526.7       531.9       537.0       542.0       547.0    
        552.1       557.4       562.7       567.5       572.6       578.4       578.6       578.1       578.7       581.9    
        582.4       585.5       587.3       583.2       570.4       554.7       536.9       516.3       491.1       459.0    
        419.2       374.6       328.0       280.7       233.4       186.4       139.7       93.10       46.58       0.000    
 114    10.00       108.9       205.1       295.5       375.7       441.4       510.2       503.5       505.6       506.2    
        506.2       505.8       505.5       505.1       504.6       503.4       503.4       503.4       506.3       509.0    
        511.8       514.6       517.8       521.2       525.3       530.0       535.1       540.2       545.2       550.0    
        555.4       561.5       568.1       572.5       578.4       578.6       578.7       582.0       580.4       582.0    
        582.7       584.2       585.8       585.7       565.5       544.3       522.5       498.6       471.2       439.2    
        402.1       361.3       318.1       273.6       228.5       183.1       137.5       91.77       45.96       0.000    
 115    10.00       99.21       185.9       267.5       341.4       406.0       462.9       503.0       503.4       504.4    
        504.4       503.4       503.5       503.4       503.4       503.4       505.3       506.8       509.1       511.6    
        514.4       517.4       520.8       525.2       527.8       532.7       538.1       543.3       548.4       552.3    
        557.9       564.8       575.4       575.8       576.9       578.4       579.2       578.7       578.1       578.1    
        578.3       579.4       583.6       599.4       561.2       534.5       509.9       484.1       455.8       424.0    
        388.7       350.2       309.4       267.1       223.7       179.7       135.2       90.35       45.29       0.000    
 116    10.00       91.84       171.5       246.9       316.3       378.3       431.9       474.3       503.2       503.4    
        503.4       503.4       504.1       504.6       505.2       506.1       507.5       509.3       511.4       513.8    
        516.5       519.4       522.6       526.1       527.7       534.6       541.2       546.2       552.5       552.8    
        558.7       564.4       570.1       573.4       575.0       575.9       576.2       575.8       574.9       573.9    
        572.6       571.2       569.5       565.6       545.3       522.3       498.1       472.1       443.7       412.3    
        378.1       341.1       302.1       261.3       219.4       176.5       133.0       88.99       44.63       0.000    
 117    10.00       86.47       161.1       232.2       298.4       358.6       412.1       458.8       503.0       503.3    
        503.4       503.4       504.7       505.7       506.7       507.8       509.3       511.1       513.2       515.6    
        518.2       521.0       524.0       527.0       529.4       536.7       545.7       547.5       550.0       556.7    
        559.7       563.6       567.1       573.9       573.6       573.9       573.8       573.1       571.7       569.8    
        567.0       563.1       557.4       548.1       531.7       511.2       488.0       462.4       434.2       403.3    
        369.9       334.1       296.2       256.6       215.7       173.8       131.1       87.80       44.05       0.000    
 118    10.00       82.77       153.9       222.2       286.4       345.5       398.9       445.4       482.3       498.1    
        503.3       504.2       505.4       506.5       507.7       509.0       510.6       512.4       514.5       516.9    
        519.4       522.2       525.2       528.3       531.3       536.8       543.3       542.6       550.2       558.9    
        559.7       563.0       566.6       570.2       571.5       572.0       571.8       570.8       569.0       566.2    
        562.2       556.7       548.8       537.6       522.0       502.6       480.2       455.0       427.2       396.8    
        363.9       328.8       291.8       253.0       212.9       171.7       129.6       86.84       43.59       0.000    
 119    10.00       80.46       149.5       216.0       279.1       338.1       392.4       441.4       482.5       503.1    
        503.4       504.7       505.9       507.1       508.4       509.8       511.4       513.3       515.4       517.7    
        520.3       523.1       526.1       529.4       533.3       535.7       539.6       542.2       549.2       555.5    
        559.2       562.6       565.8       568.5       570.0       570.6       570.3       569.1       567.0       563.6    
        558.9       552.3       543.3       531.3       515.8       496.8       474.9       450.0       422.5       392.4    
        360.0       325.4       288.8       250.6       211.0       170.2       128.6       86.18       43.27       0.000    
 120    10.00       79.36       147.4       213.2       275.8       335.0       390.9       445.2       503.0       503.4    
        504.0       505.0       506.1       507.4       508.7       510.2       511.9       513.7       515.8       518.2    
        520.7       523.5       526.5       529.7       533.1       536.0       536.1       542.4       548.7       554.3    
        558.7       562.3       565.4       567.8       569.3       569.9       569.6       568.3       565.9       562.3    
        557.1       550.1       540.6       528.3       512.7       494.0       472.2       447.5       420.2       390.3    
        358.0       323.7       287.4       249.4       210.0       169.5       128.0       85.84       43.10       0.000    

 HEAD WILL BE SAVED ON UNIT   51 AT END OF TIME STEP    1, STRESS PERIOD    1
1
  VOLUMETRIC BUDGET FOR ENTIRE MODEL AT END OF TIME STEP    1, STRESS PERIOD   1
  ------------------------------------------------------------------------------

     CUMULATIVE VOLUMES      L**3       RATES FOR THIS TIME STEP      L**3/T
     ------------------                 ------------------------

           IN:                                      IN:
           ---                                      ---
             STORAGE =           0.0000               STORAGE =           0.0000
       CONSTANT HEAD =           0.0000         CONSTANT HEAD =           0.0000
       RIVER LEAKAGE =     2463342.5000         RIVER LEAKAGE =     2463342.5000
            RECHARGE =       69600.0000              RECHARGE =       69600.0000

            TOTAL IN =     2532942.5000              TOTAL IN =     2532942.5000

          OUT:                                     OUT:
          ----                                     ----
             STORAGE =           0.0000               STORAGE =           0.0000
       CONSTANT HEAD =      971686.0625         CONSTANT HEAD =      971686.0625
       RIVER LEAKAGE =     1561254.6250         RIVER LEAKAGE =     1561254.6250
            RECHARGE =           0.0000              RECHARGE =           0.0000

           TOTAL OUT =     2532940.7500             TOTAL OUT =     2532940.7500

            IN - OUT =           1.7500              IN - OUT =           1.7500

 PERCENT DISCREPANCY =           0.00     PERCENT DISCREPANCY =           0.00






         TIME SUMMARY AT END OF TIME STEP    1 IN STRESS PERIOD    1
                    SECONDS     MINUTES      HOURS       DAYS        YEARS
                    -----------------------------------------------------------
   TIME STEP LENGTH  86400.      1440.0      24.000      1.0000     2.73785E-03
 STRESS PERIOD TIME  86400.      1440.0      24.000      1.0000     2.73785E-03
         TOTAL TIME  86400.      1440.0      24.000      1.0000     2.73785E-03
1

 Run end date and time (yyyy/mm/dd hh:mm:ss): 2020/04/06 17:38:30
 Elapsed run time:  0.051 Seconds

